
  Mrv0541 04191212102D          

 10 10  0  0  0  0            999 V2000
   -0.1480    0.2044    0.0000 C   0  0  0  0  0  0  0  0  0  0  0  0
   -0.1480   -0.6206    0.0000 C   0  0  0  0  0  0  0  0  0  0  0  0
   -0.8625    0.6169    0.0000 C   0  0  0  0  0  0  0  0  0  0  0  0
    0.5665    0.6169    0.0000 C   0  0  0  0  0  0  0  0  0  0  0  0
   -0.8625   -1.0331    0.0000 C   0  0  0  0  0  0  0  0  0  0  0  0
   -1.5770    0.2044    0.0000 C   0  0  0  0  0  0  0  0  0  0  0  0
    1.2809    0.2044    0.0000 C   0  0  0  0  0  0  0  0  0  0  0  0
   -1.5770   -0.6206    0.0000 C   0  0  0  0  0  0  0  0  0  0  0  0
    1.2809   -0.6206    0.0000 C   0  0  0  0  0  0  0  0  0  0  0  0
    1.9954    0.6169    0.0000 N   0  0  0  0  0  0  0  0  0  0  0  0
  1  2  1  0  0  0  0
  1  3  2  0  0  0  0
  1  4  1  0  0  0  0
  2  5  2  0  0  0  0
  3  6  1  0  0  0  0
  4  7  1  0  0  0  0
  5  8  1  0  0  0  0
  7  9  1  0  0  0  0
  7 10  1  0  0  0  0
  6  8  2  0  0  0  0
M  END
> <DATABASE_ID>
DB00182

> <DATABASE_NAME>
drugbank

> <SMILES>
CC(N)CC1=CC=CC=C1

> <INCHI_IDENTIFIER>
InChI=1S/C9H13N/c1-8(10)7-9-5-3-2-4-6-9/h2-6,8H,7,10H2,1H3

> <INCHI_KEY>
KWTSXDURSIMDCE-UHFFFAOYSA-N

> <FORMULA>
C9H13N

> <MOLECULAR_WEIGHT>
135.2062

> <EXACT_MASS>
135.104799421

> <JCHEM_ACCEPTOR_COUNT>
1

> <JCHEM_AVERAGE_POLARIZABILITY>
16.174738885675872

> <JCHEM_BIOAVAILABILITY>
1

> <JCHEM_DONOR_COUNT>
1

> <JCHEM_FORMAL_CHARGE>
0

> <JCHEM_GHOSE_FILTER>
0

> <JCHEM_IUPAC>
1-phenylpropan-2-amine

> <ALOGPS_LOGP>
1.85

> <JCHEM_LOGP>
1.8042504816666665

> <ALOGPS_LOGS>
-1.89

> <JCHEM_MDDR_LIKE_RULE>
0

> <JCHEM_NUMBER_OF_RINGS>
1

> <JCHEM_PHYSIOLOGICAL_CHARGE>
1

> <JCHEM_PKA_STRONGEST_BASIC>
10.01443581771614

> <JCHEM_POLAR_SURFACE_AREA>
26.02

> <JCHEM_REFRACTIVITY>
43.7052

> <JCHEM_ROTATABLE_BOND_COUNT>
2

> <JCHEM_RULE_OF_FIVE>
1

> <ALOGPS_SOLUBILITY>
1.74e+00 g/l

> <JCHEM_TRADITIONAL_IUPAC>
adderall

> <JCHEM_VEBER_RULE>
1

> <DRUGBANK_ID>
DB00182

> <SECONDARY_ACCESSION_NUMBERS>
APRD00480

> <DRUG_GROUPS>
approved; illicit; investigational

> <GENERIC_NAME>
Amphetamine

> <SYNONYMS>
(+-)-alpha-Methylphenylethylamine; 1-phenyl-2-aminopropane; alpha-Methylbenzeneethaneamine; Amfetamina; Amfetamine; Amfetaminum; Amphetamine; beta-Aminopropylbenzene; beta-Phenylisopropylamin; Desoxynorephedrine; rac-(2R)-1-phenylpropan-2-amine; rac-amphetamine; α-methylbenzeneethaneamine; α-methylphenethylamine; β-aminopropylbenzene; β-phenylisopropylamine

> <PRODUCTS>
Act Amphetamine XR; Adderall; Adderall XR; Adzenys ER; Adzenys XR-ODT; Amphetamine Extended-Release Oral Suspension; Amphetamine Sulfate; Amphetamine sulfate; Apo-amphetamine XR; Dextroamphetamine Saccharate and Amphetamine Aspartate and Dextroamphetamine Sulfate and Amphetamine Sulfate; Dextroamphetamine Saccharate, Amphetamine Aspartate (monohydrate), Dextroamphetamine Sulfate, Amphetamine Sulfate; Dextroamphetamine Saccharate, Amphetamine Aspartate Monohydrate, Dextroamphetamine Sulfate and Amphetamine Sulfate; Dextroamphetamine Saccharate, Amphetamine Aspartate Monohydrate, Dextroamphetamine Sulfate, Amphetamine Sulfate Extended-Release; Dextroamphetamine Saccharate, Amphetamine Aspartate Monohydrate, Dextroamphetamine Sulfate, and Amphetamine Sulfate; Dextroamphetamine Saccharate, Amphetamine Aspartate Monohydrate, Dextroamphetamine Sulfate, and Amphetamine Sulfate Extended-Release; Dextroamphetamine Saccharate, Amphetamine Aspartate, Dextroamphetamine Sulfate and Amphetamine Suflate; Dextroamphetamine Saccharate, Amphetamine Aspartate, Dextroamphetamine Sulfate and Amphetamine Sulfate; Dextroamphetamine Saccharate, Amphetamine Aspartate, Dextroamphetamine Sulfate, Amphetamine Sulfate; Dextroamphetamine Saccharate, Amphetamine Aspartate, Dextroamphetamine Sulfate, Amphetamine Sulfate Tablets,CII; Dextroamphetamine Saccharate, Amphetamine Aspartate, Dextroamphetamine Sulfate, and Amphetamine Sulfate; Dextroamphetamine saccharate, amphetamine aspartate monohydrate, dextroamphetamine sulfate and amphetamine sulfate; Dextroamphetamine saccharate, amphetamine aspartate monohydrate, dextroamphetamine sulfate, amphetamine sulfate; Dextroamphetamine saccharate, amphetamine aspartate monohydrate, dextroamphetamine sulfate, amphetamine sulfate ER; Dextroamphetamine saccharate, amphetamine aspartate, dextroamphetamine sulfate, and amphetamine sulfate; Dyanavel XR; Evekeo; Evekeo ODT; Mixed Salts of a Single Entity Amphetamine Product XR; Mydayis; PMS-amphetamines XR; Sandoz Amphetamine XR

> <SALTS>
Amphetamine adipate; Amphetamine aspartate; Amphetamine aspartate monohydrate; Amphetamine sulfate

$$$$

  Mrv1909 07021918052D          

  9  8  0  0  0  0            999 V2000
    0.3610   -0.4091    0.0000 C   0  0  0  0  0  0  0  0  0  0  0  0
    0.3610   -1.2400    0.0000 C   0  0  0  0  0  0  0  0  0  0  0  0
    0.3610    0.4174    0.0000 C   0  0  0  0  0  0  0  0  0  0  0  0
   -0.3528    0.8309    0.0000 C   0  0  0  0  0  0  0  0  0  0  0  0
   -1.0750    0.4174    0.0000 C   0  0  0  0  0  0  0  0  0  0  0  0
   -1.7889    0.8309    0.0000 Cl  0  0  0  0  0  0  0  0  0  0  0  0
    0.3610    1.2400    0.0000 O   0  0  0  0  0  0  0  0  0  0  0  0
    1.0750    0.8309    0.0000 C   0  0  0  0  0  0  0  0  0  0  0  0
    1.7889    0.4174    0.0000 C   0  0  0  0  0  0  0  0  0  0  0  0
  2  1  3  0  0  0  0
  3  1  1  0  0  0  0
  4  3  1  0  0  0  0
  5  4  2  0  0  0  0
  6  5  1  0  0  0  0
  7  3  1  0  0  0  0
  8  3  1  0  0  0  0
  9  8  1  0  0  0  0
M  END
> <DATABASE_ID>
DB00189

> <DATABASE_NAME>
drugbank

> <SMILES>
CCC(O)(\C=C\Cl)C#C

> <INCHI_IDENTIFIER>
InChI=1S/C7H9ClO/c1-3-7(9,4-2)5-6-8/h1,5-6,9H,4H2,2H3/b6-5+

> <INCHI_KEY>
ZEHYJZXQEQOSON-AATRIKPKSA-N

> <FORMULA>
C7H9ClO

> <MOLECULAR_WEIGHT>
144.6

> <EXACT_MASS>
144.0341926

> <JCHEM_ACCEPTOR_COUNT>
1

> <JCHEM_ATOM_COUNT>
18

> <JCHEM_AVERAGE_POLARIZABILITY>
14.766102360555642

> <JCHEM_BIOAVAILABILITY>
1

> <JCHEM_DONOR_COUNT>
1

> <JCHEM_FORMAL_CHARGE>
0

> <JCHEM_GHOSE_FILTER>
0

> <JCHEM_IUPAC>
(1E)-1-chloro-3-ethylpent-1-en-4-yn-3-ol

> <ALOGPS_LOGP>
1.45

> <JCHEM_LOGP>
1.620819461

> <ALOGPS_LOGS>
-3.00

> <JCHEM_MDDR_LIKE_RULE>
0

> <JCHEM_NUMBER_OF_RINGS>
0

> <JCHEM_PHYSIOLOGICAL_CHARGE>
0

> <JCHEM_PKA_STRONGEST_ACIDIC>
12.877910831568652

> <JCHEM_PKA_STRONGEST_BASIC>
-3.727001802271872

> <JCHEM_POLAR_SURFACE_AREA>
20.23

> <JCHEM_REFRACTIVITY>
38.6382

> <JCHEM_ROTATABLE_BOND_COUNT>
2

> <JCHEM_RULE_OF_FIVE>
1

> <ALOGPS_SOLUBILITY>
1.43e-01 g/l

> <JCHEM_TRADITIONAL_IUPAC>
ethchlorvynol

> <JCHEM_VEBER_RULE>
1

> <DRUGBANK_ID>
DB00189

> <SECONDARY_ACCESSION_NUMBERS>
APRD00958

> <DRUG_GROUPS>
approved; illicit; withdrawn

> <GENERIC_NAME>
Ethchlorvynol

> <SYNONYMS>
1-chloro-3-ethyl-1-penten-4-yn-3-ol; 1-Chloro-3-ethyl-pent-1-en-4-yn-3-ol; 3-(beta-chlorovinyl)-1-pentyn-3-ol; 3-(β-chlorovinyl)-1-pentyn-3-ol; etclorvinol; Ethchlorvynol; ethyl β-chlorovinyl ethynyl carbinol; β-chlorovinyl ethyl ethynyl carbinol

> <PRODUCTS>
Placidyl Cap 200mg; Placidyl Cap 500mg; Placidyl Cap 750mg

> <INTERNATIONAL_BRANDS>
Arvynol; Nostel; Placidyl; Roeridorm; Serenesil

$$$$
191
  Mrv0541 02231214302D          

 11 11  0  0  0  0            999 V2000
    3.7935    1.3943    0.0000 N   0  0  0  0  0  0  0  0  0  0  0  0
    3.0791    0.9818    0.0000 C   0  0  0  0  0  0  0  0  0  0  0  0
    2.3645    0.5693    0.0000 C   0  0  0  0  0  0  0  0  0  0  0  0
    2.6665    1.6962    0.0000 C   0  0  0  0  0  0  0  0  0  0  0  0
    3.4916    0.2673    0.0000 C   0  0  0  0  0  0  0  0  0  0  0  0
    2.3645   -0.2558    0.0000 C   0  0  0  0  0  0  0  0  0  0  0  0
    3.0791   -0.6683    0.0000 C   0  0  0  0  0  0  0  0  0  0  0  0
    1.6500   -0.6683    0.0000 C   0  0  0  0  0  0  0  0  0  0  0  0
    3.0791   -1.4933    0.0000 C   0  0  0  0  0  0  0  0  0  0  0  0
    1.6500   -1.4933    0.0000 C   0  0  0  0  0  0  0  0  0  0  0  0
    2.3645   -1.9058    0.0000 C   0  0  0  0  0  0  0  0  0  0  0  0
  1  2  1  0  0  0  0
  2  3  1  0  0  0  0
  2  4  1  0  0  0  0
  2  5  1  0  0  0  0
  3  6  1  0  0  0  0
  6  7  2  0  0  0  0
  6  8  1  0  0  0  0
  7  9  1  0  0  0  0
  8 10  2  0  0  0  0
  9 11  2  0  0  0  0
 10 11  1  0  0  0  0
M  END
> <DATABASE_ID>
DB00191

> <DATABASE_NAME>
drugbank

> <SMILES>
CC(C)(N)CC1=CC=CC=C1

> <INCHI_IDENTIFIER>
InChI=1S/C10H15N/c1-10(2,11)8-9-6-4-3-5-7-9/h3-7H,8,11H2,1-2H3

> <INCHI_KEY>
DHHVAGZRUROJKS-UHFFFAOYSA-N

> <FORMULA>
C10H15N

> <MOLECULAR_WEIGHT>
149.2328

> <EXACT_MASS>
149.120449485

> <JCHEM_ACCEPTOR_COUNT>
1

> <JCHEM_AVERAGE_POLARIZABILITY>
17.87496804528466

> <JCHEM_BIOAVAILABILITY>
1

> <JCHEM_DONOR_COUNT>
1

> <JCHEM_FORMAL_CHARGE>
0

> <JCHEM_GHOSE_FILTER>
0

> <JCHEM_IUPAC>
2-methyl-1-phenylpropan-2-amine

> <ALOGPS_LOGP>
2.32

> <JCHEM_LOGP>
2.0848271499999997

> <ALOGPS_LOGS>
-2.29

> <JCHEM_MDDR_LIKE_RULE>
0

> <JCHEM_NUMBER_OF_RINGS>
1

> <JCHEM_PHYSIOLOGICAL_CHARGE>
1

> <JCHEM_PKA_STRONGEST_BASIC>
10.248513745149388

> <JCHEM_POLAR_SURFACE_AREA>
26.02

> <JCHEM_REFRACTIVITY>
48.34340000000002

> <JCHEM_ROTATABLE_BOND_COUNT>
2

> <JCHEM_RULE_OF_FIVE>
1

> <ALOGPS_SOLUBILITY>
7.57e-01 g/l

> <JCHEM_TRADITIONAL_IUPAC>
phentermine

> <JCHEM_VEBER_RULE>
1

> <DRUGBANK_ID>
DB00191

> <SECONDARY_ACCESSION_NUMBERS>
APRD00093

> <DRUG_GROUPS>
approved; illicit

> <GENERIC_NAME>
Phentermine

> <SYNONYMS>
alpha,alpha-Dimethylphenethylamine; Fentermina; Phentermine; Phentermine resin; Phenterminum

> <PRODUCTS>
Adipex-P; Fastin Cap 30mg; Ionamin; Lomaira; Phentermine; Phentermine HCl; Phentermine HCl C-IV; Phentermine Hydrochloride; Phentermine Resin ER; Phentermine hydrochloride; Phetermine Hydrochloride; Qsymia; Suprenza

> <INTERNATIONAL_BRANDS>
Dapex; Duromine; Fastin; Obenix; Obestin-30; Oby-trim; Phentercot; Phentride; Umi-Pex

> <SALTS>
Phentermine hydrochloride

$$$$
237
  Mrv0541 02231214322D          

 15 15  0  0  1  0            999 V2000
    4.5080    0.1658    0.0000 O   0  0  0  0  0  0  0  0  0  0  0  0
    1.6500    0.1658    0.0000 O   0  0  0  0  0  0  0  0  0  0  0  0
    3.0791   -2.3092    0.0000 O   0  0  0  0  0  0  0  0  0  0  0  0
    3.7935   -1.0717    0.0000 N   0  0  0  0  0  0  0  0  0  0  0  0
    2.3645   -1.0717    0.0000 N   0  0  0  0  0  0  0  0  0  0  0  0
    3.0791    0.1658    0.0000 C   0  0  0  0  0  0  0  0  0  0  0  0
    3.4916    0.8803    0.0000 C   0  0  0  0  0  0  0  0  0  0  0  0
    2.6665    0.8803    0.0000 C   0  0  0  0  0  0  0  0  0  0  0  0
    3.0791    1.5948    0.0000 C   0  0  0  0  0  0  0  0  0  0  0  0
    3.7935   -0.2467    0.0000 C   0  0  0  0  0  0  0  0  0  0  0  0
    2.3645   -0.2467    0.0000 C   0  0  0  0  0  0  0  0  0  0  0  0
    4.3166    0.8803    0.0000 C   0  0  0  0  0  0  0  0  0  0  0  0
    1.8415    0.8803    0.0000 C   0  0  0  0  0  0  0  0  0  0  0  0
    3.4916    2.3092    0.0000 C   0  0  0  0  0  0  0  0  0  0  0  0
    3.0791   -1.4842    0.0000 C   0  0  0  0  0  0  0  0  0  0  0  0
  1 10  2  0  0  0  0
  2 11  2  0  0  0  0
  3 15  2  0  0  0  0
  4 10  1  0  0  0  0
  4 15  1  0  0  0  0
  5 11  1  0  0  0  0
  5 15  1  0  0  0  0
  6  7  1  0  0  0  0
  6  8  1  0  0  0  0
  6 10  1  0  0  0  0
  6 11  1  0  0  0  0
  7  9  1  0  0  0  0
  7 12  1  0  0  0  0
  8 13  1  0  0  0  0
  9 14  1  0  0  0  0
M  END
> <DATABASE_ID>
DB00237

> <DATABASE_NAME>
drugbank

> <SMILES>
CCC(C)C1(CC)C(=O)NC(=O)NC1=O

> <INCHI_IDENTIFIER>
InChI=1S/C10H16N2O3/c1-4-6(3)10(5-2)7(13)11-9(15)12-8(10)14/h6H,4-5H2,1-3H3,(H2,11,12,13,14,15)

> <INCHI_KEY>
ZRIHAIZYIMGOAB-UHFFFAOYSA-N

> <FORMULA>
C10H16N2O3

> <MOLECULAR_WEIGHT>
212.2456

> <EXACT_MASS>
212.116092388

> <JCHEM_ACCEPTOR_COUNT>
3

> <JCHEM_AVERAGE_POLARIZABILITY>
21.410874790436942

> <JCHEM_BIOAVAILABILITY>
1

> <JCHEM_DONOR_COUNT>
2

> <JCHEM_FORMAL_CHARGE>
0

> <JCHEM_GHOSE_FILTER>
1

> <JCHEM_IUPAC>
5-(butan-2-yl)-5-ethyl-1,3-diazinane-2,4,6-trione

> <ALOGPS_LOGP>
1.70

> <JCHEM_LOGP>
1.4486825816666666

> <ALOGPS_LOGS>
-2.18

> <JCHEM_MDDR_LIKE_RULE>
0

> <JCHEM_NUMBER_OF_RINGS>
1

> <JCHEM_PHYSIOLOGICAL_CHARGE>
0

> <JCHEM_PKA>
12.151890058493215

> <JCHEM_PKA_STRONGEST_ACIDIC>
8.482024390046842

> <JCHEM_POLAR_SURFACE_AREA>
75.27

> <JCHEM_REFRACTIVITY>
53.40189999999999

> <JCHEM_ROTATABLE_BOND_COUNT>
3

> <JCHEM_RULE_OF_FIVE>
1

> <ALOGPS_SOLUBILITY>
1.39e+00 g/l

> <JCHEM_TRADITIONAL_IUPAC>
butabarbital

> <JCHEM_VEBER_RULE>
0

> <DRUGBANK_ID>
DB00237

> <SECONDARY_ACCESSION_NUMBERS>
APRD00752

> <DRUG_GROUPS>
approved; illicit

> <GENERIC_NAME>
Butabarbital

> <SYNONYMS>
5-ethyl-5-(1-methylpropyl)-2,4,6(1H,3H,5H)-pyrimidinetrione; 5-ethyl-5-(1-methylpropyl)barbituric acid; 5-sec-butyl-5-ethyl-2,4,6(1H,3H,5H)-pyrimidinetrione; 5-sec-butyl-5-ethylbarbituric acid; 5-sec-butyl-5-ethylpyrimidine-2,4,6(1H,3H,5H)-trione; Butabarbital; Secbutabarbital; Secbutabarbitale; Secbutabarbitalum

> <PRODUCTS>
Butisol Sodium; Butisol Sodium Tab 100mg; Butisol Sodium Tab 15mg; Butisol Sodium Tab 30mg; Phenazopyridine Hydrochloride, Hyoscyamine Hydrobromide, and Butabarbital; Phenazopyridine Plus; Pyrelle H.B.

> <INTERNATIONAL_BRANDS>
Butalan; Butisol; Sarisol No. 2

> <SALTS>
Butabarbital sodium

$$$$
241
  Mrv0541 02231214322D          

 16 16  0  0  0  0            999 V2000
    4.7291    0.1658    0.0000 O   0  0  0  0  0  0  0  0  0  0  0  0
    1.8711    0.1658    0.0000 O   0  0  0  0  0  0  0  0  0  0  0  0
    3.3001   -2.3092    0.0000 O   0  0  0  0  0  0  0  0  0  0  0  0
    4.0145   -1.0717    0.0000 N   0  0  0  0  0  0  0  0  0  0  0  0
    2.5856   -1.0717    0.0000 N   0  0  0  0  0  0  0  0  0  0  0  0
    3.3001    0.1658    0.0000 C   0  0  0  0  0  0  0  0  0  0  0  0
    3.7126    0.8803    0.0000 C   0  0  0  0  0  0  0  0  0  0  0  0
    3.3001    1.5948    0.0000 C   0  0  0  0  0  0  0  0  0  0  0  0
    2.8876    0.8803    0.0000 C   0  0  0  0  0  0  0  0  0  0  0  0
    4.0145   -0.2467    0.0000 C   0  0  0  0  0  0  0  0  0  0  0  0
    2.5856   -0.2467    0.0000 C   0  0  0  0  0  0  0  0  0  0  0  0
    2.4751    1.5948    0.0000 C   0  0  0  0  0  0  0  0  0  0  0  0
    3.7126    2.3092    0.0000 C   0  0  0  0  0  0  0  0  0  0  0  0
    2.0625    0.8803    0.0000 C   0  0  0  0  0  0  0  0  0  0  0  0
    3.3001   -1.4842    0.0000 C   0  0  0  0  0  0  0  0  0  0  0  0
    1.6500    1.5948    0.0000 C   0  0  0  0  0  0  0  0  0  0  0  0
  1 10  2  0  0  0  0
  2 11  2  0  0  0  0
  3 15  2  0  0  0  0
  4 10  1  0  0  0  0
  4 15  1  0  0  0  0
  5 11  1  0  0  0  0
  5 15  1  0  0  0  0
  6  7  1  0  0  0  0
  6  9  1  0  0  0  0
  6 10  1  0  0  0  0
  6 11  1  0  0  0  0
  7  8  1  0  0  0  0
  8 12  1  0  0  0  0
  8 13  1  0  0  0  0
  9 14  1  0  0  0  0
 14 16  2  0  0  0  0
M  END
> <DATABASE_ID>
DB00241

> <DATABASE_NAME>
drugbank

> <SMILES>
CC(C)CC1(CC=C)C(=O)NC(=O)NC1=O

> <INCHI_IDENTIFIER>
InChI=1S/C11H16N2O3/c1-4-5-11(6-7(2)3)8(14)12-10(16)13-9(11)15/h4,7H,1,5-6H2,2-3H3,(H2,12,13,14,15,16)

> <INCHI_KEY>
UZVHFVZFNXBMQJ-UHFFFAOYSA-N

> <FORMULA>
C11H16N2O3

> <MOLECULAR_WEIGHT>
224.2563

> <EXACT_MASS>
224.116092388

> <JCHEM_ACCEPTOR_COUNT>
3

> <JCHEM_AVERAGE_POLARIZABILITY>
22.424209910653055

> <JCHEM_BIOAVAILABILITY>
1

> <JCHEM_DONOR_COUNT>
2

> <JCHEM_FORMAL_CHARGE>
0

> <JCHEM_GHOSE_FILTER>
1

> <JCHEM_IUPAC>
5-(2-methylpropyl)-5-(prop-2-en-1-yl)-1,3-diazinane-2,4,6-trione

> <ALOGPS_LOGP>
1.47

> <JCHEM_LOGP>
1.5892632603333325

> <ALOGPS_LOGS>
-2.00

> <JCHEM_MDDR_LIKE_RULE>
0

> <JCHEM_NUMBER_OF_RINGS>
1

> <JCHEM_PHYSIOLOGICAL_CHARGE>
0

> <JCHEM_PKA>
12.151206288215347

> <JCHEM_PKA_STRONGEST_ACIDIC>
8.481397724138178

> <JCHEM_POLAR_SURFACE_AREA>
75.27

> <JCHEM_REFRACTIVITY>
58.047

> <JCHEM_ROTATABLE_BOND_COUNT>
4

> <JCHEM_RULE_OF_FIVE>
1

> <ALOGPS_SOLUBILITY>
2.23e+00 g/l

> <JCHEM_TRADITIONAL_IUPAC>
butalbital

> <JCHEM_VEBER_RULE>
0

> <DRUGBANK_ID>
DB00241

> <SECONDARY_ACCESSION_NUMBERS>
APRD00266

> <DRUG_GROUPS>
approved; illicit

> <GENERIC_NAME>
Butalbital

> <SYNONYMS>
5-(2-methylpropyl)-5-prop-2-enyl-1,3-diazinane-2,4,6-trione; 5-allyl-5-(2-methylpropyl)barbituric acid; 5-allyl-5-(2'-methyl-n-propyl) barbituric acid; 5-allyl-5-isobutyl-2,4,6(1H,3H,5H)-pyrimidinetrione; 5-Allyl-5-isobutyl-pyrimidine-2,4,6-trione; 5-allyl-5-isobutylbarbituric acid; 5-isobutyl-5-allylbarbituric acid; Allylbarbital; Allylbarbitone; Allylbarbituric acid; Butalbarbital; Butalbital; Butalbitalum; iso-butylallylbarbituric acid; Itobarbital; Tetrallobarbital

> <PRODUCTS>
Acetaminophen, Butalbital and Caffeine; Alagesic LQ; Allzital; Ascomp with Codeine; Bupap; Butalbita,Acetaminophen and Caffeine; Butalbital Acetaminophen and Caffeine; Butalbital And Acetaminophen; Butalbital Compound; Butalbital and Acetaminophen; Butalbital and Acetaminophen 50 mg/325 mg; Butalbital, Acetaminophen and Caffeine; Butalbital, Acetaminophen and Caffeine Plus; Butalbital, Acetaminophen and Caffeine with Codeine Phosphate; Butalbital, Acetaminophen, Caffeine; Butalbital, Acetaminophen, Caffeine and Codeine Phosphate; Butalbital, Acetaminophen, Caffeine, and Codeine Phosphate; Butalbital, Acetaminophen, and Caffeine; Butalbital, Acetominophen and Caffeine; Butalbital, Aspirin and Caffeine; Butalbital, Aspirin, Caffeine and Codeine Phosphate; Butalbital, Aspirin, Caffeine, and Codeine Phosphate; Butalbital, Aspirin, and Caffeine; Butalbital, aspirin, and caffeine; Butapap; Capacet; Dolgic Plus; Esgic; Esgic-Plus; Fioricet; Fioricet with Codeine; Fiorinal; Fiorinal Tab; Fiorinal with Codeine; Fiorinal-C 1/2; Fiorinal-C 1/4; Margesic; Marten-Tab; Orbivan; Orbivan CF; PMS-pharnal Capsules; PMS-pharnal Tablets; PMS-pharnal-C 1/4 Capsules; PMS-pharnal-C1/2 Capsules; Phrenilin; Phrenilin Forte; Pronal - C1/2 Capsules; Pronal C1/4 Capsules; Pronal Capsules; Pronal Tablets; Tencon; Teva-tecnal; Teva-tecnal C 1/2; Teva-tecnal C 1/4; Trianal Capsules; Trianal C¼; Trianal C½; Trianal Tablet; Vanatol LQ; Vanatol S; Vtol LQ; Zebutal

> <INTERNATIONAL_BRANDS>
Sandoptal

> <SALTS>
Butalbital sodium

$$$$

  Mrv0541 08081309442D          

 16 16  0  0  1  0            999 V2000
    1.8711    0.1658    0.0000 O   0  0  0  0  0  0  0  0  0  0  0  0
    4.7291    0.1658    0.0000 O   0  0  0  0  0  0  0  0  0  0  0  0
    3.3001   -2.3092    0.0000 O   0  0  0  0  0  0  0  0  0  0  0  0
    2.5856   -1.0717    0.0000 N   0  0  0  0  0  0  0  0  0  0  0  0
    4.0145   -1.0717    0.0000 N   0  0  0  0  0  0  0  0  0  0  0  0
    3.3001    0.1658    0.0000 C   0  0  0  0  0  0  0  0  0  0  0  0
    3.7126    0.8803    0.0000 C   0  0  0  0  0  0  0  0  0  0  0  0
    2.8876    0.8803    0.0000 C   0  0  0  0  0  0  0  0  0  0  0  0
    3.3001    1.5948    0.0000 C   0  0  0  0  0  0  0  0  0  0  0  0
    2.5856   -0.2467    0.0000 C   0  0  0  0  0  0  0  0  0  0  0  0
    4.0145   -0.2467    0.0000 C   0  0  0  0  0  0  0  0  0  0  0  0
    4.5376    0.8803    0.0000 C   0  0  0  0  0  0  0  0  0  0  0  0
    3.3001   -1.4842    0.0000 C   0  0  0  0  0  0  0  0  0  0  0  0
    3.7126    2.3092    0.0000 C   0  0  0  0  0  0  0  0  0  0  0  0
    2.0625    0.8803    0.0000 C   0  0  0  0  0  0  0  0  0  0  0  0
    1.6500    1.5948    0.0000 C   0  0  0  0  0  0  0  0  0  0  0  0
  1 10  2  0  0  0  0
  2 11  2  0  0  0  0
  3 13  2  0  0  0  0
  4 10  1  0  0  0  0
  4 13  1  0  0  0  0
  5 11  1  0  0  0  0
  5 13  1  0  0  0  0
  6  7  1  0  0  0  0
  6  8  1  0  0  0  0
  6 10  1  0  0  0  0
  6 11  1  0  0  0  0
  7  9  1  0  0  0  0
  7 12  1  0  0  0  0
  8 15  1  0  0  0  0
  9 14  1  0  0  0  0
 15 16  2  0  0  0  0
M  END
> <DATABASE_ID>
DB00306

> <DATABASE_NAME>
drugbank

> <SMILES>
CCC(C)C1(CC=C)C(=O)NC(=O)NC1=O

> <INCHI_IDENTIFIER>
InChI=1S/C11H16N2O3/c1-4-6-11(7(3)5-2)8(14)12-10(16)13-9(11)15/h4,7H,1,5-6H2,2-3H3,(H2,12,13,14,15,16)

> <INCHI_KEY>
BJVVMKUXKQHWJK-UHFFFAOYSA-N

> <FORMULA>
C11H16N2O3

> <MOLECULAR_WEIGHT>
224.2563

> <EXACT_MASS>
224.116092388

> <JCHEM_ACCEPTOR_COUNT>
3

> <JCHEM_AVERAGE_POLARIZABILITY>
22.482020735327588

> <JCHEM_BIOAVAILABILITY>
1

> <JCHEM_DONOR_COUNT>
2

> <JCHEM_FORMAL_CHARGE>
0

> <JCHEM_GHOSE_FILTER>
1

> <JCHEM_IUPAC>
5-(butan-2-yl)-5-(prop-2-en-1-yl)-1,3-diazinane-2,4,6-trione

> <ALOGPS_LOGP>
1.87

> <JCHEM_LOGP>
1.5892632603333325

> <ALOGPS_LOGS>
-1.96

> <JCHEM_MDDR_LIKE_RULE>
0

> <JCHEM_NUMBER_OF_RINGS>
1

> <JCHEM_PHYSIOLOGICAL_CHARGE>
0

> <JCHEM_PKA>
12.14833825700984

> <JCHEM_PKA_STRONGEST_ACIDIC>
8.478768535925882

> <JCHEM_POLAR_SURFACE_AREA>
75.27

> <JCHEM_REFRACTIVITY>
58.047

> <JCHEM_ROTATABLE_BOND_COUNT>
4

> <JCHEM_RULE_OF_FIVE>
1

> <ALOGPS_SOLUBILITY>
2.46e+00 g/l

> <JCHEM_TRADITIONAL_IUPAC>
talbutal

> <JCHEM_VEBER_RULE>
0

> <DRUGBANK_ID>
DB00306

> <SECONDARY_ACCESSION_NUMBERS>
APRD01333

> <DRUG_GROUPS>
approved; illicit

> <GENERIC_NAME>
Talbutal

> <SYNONYMS>
(RS)-5-allyl-5-sec-butylpyrimidine-2,4,6(1H,3H,5H)-trione; 5-allyl-5-sec-butylbarbituric acid; sec-Butyl allyl barbituric acid; Talbutal; Talbutale; Talbutalum

> <INTERNATIONAL_BRANDS>
Lotusate

$$$$

  Mrv1902 04141921032D          

 23 27  0  0  0  0            999 V2000
   -0.3917   -0.4145    0.0000 C   0  0  2  0  0  0  0  0  0  0  0  0
   -0.3952    0.4076    0.0000 C   0  0  0  0  0  0  0  0  0  0  0  0
    0.3139   -0.8309    0.0000 C   0  0  2  0  0  0  0  0  0  0  0  0
   -1.1115   -0.8203    0.0000 C   0  0  1  0  0  0  0  0  0  0  0  0
    0.3139    0.0053    0.0000 C   0  0  0  0  0  0  0  0  0  0  0  0
   -1.1115    0.8170    0.0000 C   0  0  0  0  0  0  0  0  0  0  0  0
    0.3174    0.8170    0.0000 C   0  0  0  0  0  0  0  0  0  0  0  0
    1.0302   -0.4216    0.0000 C   0  0  1  0  0  0  0  0  0  0  0  0
    0.3105   -1.6530    0.0000 C   0  0  0  0  0  0  0  0  0  0  0  0
   -1.9301    0.0546    0.0000 O   0  0  0  0  0  0  0  0  0  0  0  0
   -1.1151   -1.6426    0.0000 C   0  0  2  0  0  0  0  0  0  0  0  0
    1.7397   -0.0087    0.0000 C   0  0  0  0  0  0  0  0  0  0  0  0
   -1.1115    1.6462    0.0000 C   0  0  0  0  0  0  0  0  0  0  0  0
    1.0338    0.4040    0.0000 C   0  0  0  0  0  0  0  0  0  0  0  0
    0.3174    1.6462    0.0000 C   0  0  0  0  0  0  0  0  0  0  0  0
    1.7466   -0.8380    0.0000 N   0  0  0  0  0  0  0  0  0  0  0  0
   -0.4057   -2.0590    0.0000 C   0  0  0  0  0  0  0  0  0  0  0  0
   -1.8349   -2.0554    0.0000 O   0  0  0  0  0  0  0  0  0  0  0  0
   -0.3917    2.0590    0.0000 C   0  0  0  0  0  0  0  0  0  0  0  0
   -1.8279    2.0590    0.0000 O   0  0  0  0  0  0  0  0  0  0  0  0
    2.5442   -0.6192    0.0000 C   0  0  0  0  0  0  0  0  0  0  0  0
   -2.5442    1.6462    0.0000 C   0  0  0  0  0  0  0  0  0  0  0  0
    1.1009   -1.3991    0.0000 H   0  0  0  0  0  0  0  0  0  0  0  0
  1  2  1  0  0  0  0
  1  3  1  0  0  0  0
  1  4  1  0  0  0  0
  1  5  1  1  0  0  0
  2  6  2  0  0  0  0
  2  7  1  0  0  0  0
  3  8  1  0  0  0  0
  3  9  1  0  0  0  0
  4 10  1  6  0  0  0
  4 11  1  0  0  0  0
  6 13  1  0  0  0  0
  7 14  1  0  0  0  0
  7 15  2  0  0  0  0
  8 16  1  1  0  0  0
  9 17  2  0  0  0  0
 11 18  1  6  0  0  0
 13 19  2  0  0  0  0
 13 20  1  0  0  0  0
 16 21  1  0  0  0  0
 20 22  1  0  0  0  0
  6 10  1  0  0  0  0
  8 14  1  0  0  0  0
 11 17  1  0  0  0  0
 12 16  1  0  0  0  0
 15 19  1  0  0  0  0
  3 23  1  1  0  0  0
  5 12  1  0  0  0  0
M  END
> <DATABASE_ID>
DB00318

> <DATABASE_NAME>
drugbank

> <SMILES>
[H][C@]12C=C[C@H](O)[C@@H]3OC4=C5C(C[C@H]1N(C)CC[C@@]235)=CC=C4OC

> <INCHI_IDENTIFIER>
InChI=1S/C18H21NO3/c1-19-8-7-18-11-4-5-13(20)17(18)22-16-14(21-2)6-3-10(15(16)18)9-12(11)19/h3-6,11-13,17,20H,7-9H2,1-2H3/t11-,12+,13-,17-,18-/m0/s1

> <INCHI_KEY>
OROGSEYTTFOCAN-DNJOTXNNSA-N

> <FORMULA>
C18H21NO3

> <MOLECULAR_WEIGHT>
299.3642

> <EXACT_MASS>
299.152143543

> <JCHEM_ACCEPTOR_COUNT>
4

> <JCHEM_ATOM_COUNT>
43

> <JCHEM_AVERAGE_POLARIZABILITY>
31.945923610648677

> <JCHEM_BIOAVAILABILITY>
1

> <JCHEM_DONOR_COUNT>
1

> <JCHEM_FORMAL_CHARGE>
0

> <JCHEM_GHOSE_FILTER>
1

> <JCHEM_IUPAC>
(1S,5R,13R,14S,17R)-10-methoxy-4-methyl-12-oxa-4-azapentacyclo[9.6.1.0^{1,13}.0^{5,17}.0^{7,18}]octadeca-7(18),8,10,15-tetraen-14-ol

> <ALOGPS_LOGP>
1.20

> <JCHEM_LOGP>
1.3429512830000006

> <ALOGPS_LOGS>
-2.72

> <JCHEM_MDDR_LIKE_RULE>
0

> <JCHEM_NUMBER_OF_RINGS>
5

> <JCHEM_PHYSIOLOGICAL_CHARGE>
1

> <JCHEM_PKA_STRONGEST_ACIDIC>
13.782739294723577

> <JCHEM_PKA_STRONGEST_BASIC>
9.19278496599547

> <JCHEM_POLAR_SURFACE_AREA>
41.93

> <JCHEM_REFRACTIVITY>
84.60470000000001

> <JCHEM_ROTATABLE_BOND_COUNT>
1

> <JCHEM_RULE_OF_FIVE>
1

> <ALOGPS_SOLUBILITY>
5.77e-01 g/l

> <JCHEM_TRADITIONAL_IUPAC>
(1S,5R,13R,14S,17R)-10-methoxy-4-methyl-12-oxa-4-azapentacyclo[9.6.1.0^{1,13}.0^{5,17}.0^{7,18}]octadeca-7(18),8,10,15-tetraen-14-ol

> <JCHEM_VEBER_RULE>
0

> <DRUGBANK_ID>
DB00318

> <SECONDARY_ACCESSION_NUMBERS>
APRD00120; DB09471

> <DRUG_GROUPS>
approved; illicit

> <GENERIC_NAME>
Codeine

> <SYNONYMS>
(−)-Codeine; (5alpha,6alpha)-7,8-Didehydro-4,5-epoxy-3-methoxy-17-methylmorphinan-6-ol; 7,8-didehydro-4,5α-epoxy-3-methoxy-17-methylmorphinan-6α-ol; Codein; Codeína; Codéine; Codeine anhydrous; Codeine polistirex; Codeinum; L-Codeine; Methylmorphine; morphine 3-methyl ether; Morphine monomethyl ether; morphine-3-methyl ether; O3-Methylmorphine

> <PRODUCTS>
(extra Strength) Acetaminophen, Caffeine & 8mg Codeine Phosphate Caplets; 222 Tablets; 282 Mep Tab; 282 Tab; 282 Tablets; 292 Tab; 292 Tablets; A & C Tablets With Codeine 15mg; A & C Tablets With Codeine 30mg; A.C. & C 8mg Tab; A.C. & C. 8 mg; A.C. & C. 8mg; A.C.& C Tablets; ACETAMINOPHEN AND CODEINe; ACETAMINOPHEN with CODEINE; Ac and C Tab 1/8gr; Ac&c Tablets; Acet 2; Acet 3; Acet Codeine 30; Acet Codeine 60; Acetaminophen 300mg, Caffeine & Codeine; Acetaminophen 325 C & C; Acetaminophen 325 Mg Caffeine and Codeine; Acetaminophen 325 Mg With 15 Mg Caffeine and 8 Mg Codeine Phosphate; Acetaminophen 500 Mg Compound Tablets With Codeine; Acetaminophen 500 Mg With 15 Mg Caffeine and 8 Mg Codeine Phosphate; Acetaminophen 500mg, Caffeine and 8mg Codeine Phosphate; Acetaminophen And Codeine; Acetaminophen And Codeine Phosphate; Acetaminophen Caffeine & 8mg Cod Phos Tab; Acetaminophen Caffeine & 8mg Cod. Phos. Tab; Acetaminophen Compound Tablets With Codeine 8mg; Acetaminophen Elixir With 8mg Codeine Phosphate Syrup; Acetaminophen W Codeine Tab; Acetaminophen With Codeine - Caplet; Acetaminophen and Codeine; Acetaminophen and Codeine Phosphate; Acetaminophen with Codeine; Acetaminophen, Aspirin and Codeine Phosphate; Acetaminophen, Caffeine & 8mg Codeine Phosphate; Acetaminophen, Caffeine & 8mg Codeine Phosphate Tablets; Acetaminophen, Caffeine & Codeine; Acetaminophen, Caffeine & Codeine Tablets; Acetaminophen, Caffeine and 8 Mg Of Codeine Phosphate Tablets; Acetaminophen, Caffeine and Codeine Phosphate Tablets; Acetaminophen, Caffeine, and 8mg Of Codeine Phosphate Tablets; Acetaminophen-caffeine-codeine; Acetaminophene Codeine Et Cafeine Caplets; Acetaminophene Codeine Et Cafeine Fort; Acetazone Forte C8; Acetylsalicylic Acid, Caffeine & 8 Mg Codeine Phosphate Tablets; Acetylsalicylic Acid, Caffeine and 8 Mg Codeine Phosphate; Airacof; Ala-hist Ac; Anacin With Codeine Tab; Apo-acetaco #1; Asa, Caffeine & 8mg Codeine Phosphate; Asa-caffeine-codeine; Ascomp with Codeine; Atasol 15; Atasol 30; Atasol 8; Axacet-C1/8; Axisal-C1/8; Balminil Codeine + Decongestant + Expectorant; Balminil Codeine Night Time + Expectorant; Benylin 2 Cold and Flu With Codeine; Benylin Codeine 3.3mg De Syr; Butalbital, Acetaminophen and Caffeine with Codeine Phosphate; Butalbital, Acetaminophen, Caffeine and Codeine Phosphate; Butalbital, Acetaminophen, Caffeine, and Codeine Phosphate; Butalbital, Aspirin, Caffeine and Codeine Phosphate; Butalbital, Aspirin, Caffeine, and Codeine Phosphate; C T Acetylsalicylic Acid Codeine and Caf Tab; C-2 Buffered With Codeine; C2 Buffered With Codeine Tab; C2 Tab With Codeine; Calmylin; Calmylin Ace; Calmylin Codeine D-E Syr; Calmylin Pse With Codeine; CapCof; Capital and Codeine; Carisoprodol, Aspirin and Codeine Phosphate; Cheracol Cough Syrup; Cheratussin AC; Cheratussin DAC; Chlorpheniramine and Codeine; Coactifed; Cocet; Cocet Plus; Codar AR; Codar D; Codar GF; Codeine 15; Codeine 30; Codeine Contin 100mg Controlled Release Tab; Codeine Contin 150mg Controlled Release Tab; Codeine Contin 200mg Controlled Release Tab; Codeine Contin 50mg Controlled Release Tab; Codeine Guaifenesin; Codeine Phosphate Guaifenesin; Codeine Phosphate Inj 30mg/ml; Codeine Phosphate Inj 60mg/ml; Codeine Phosphate Injection USP; Codeine Phosphate Syrup; Codeine Phosphate Tab 15mg; Codeine Phosphate Tab 30mg; Codeine Phosphate Tab 60mg; Codeine Phosphate and Guaifenesin; Codeine Phosphate and Pseudoephedrine Hydrochloride; Codeine Sulfate; Codeine Tab 15mg; Codeine Tab 30mg; Codeine and Chlorpheniramine Maleate ER; Codeine sulfate; Codeine-Guaifenesin; Codeprex Pennkinetic; Coditussin AC; Coditussin DAC; Codrix; Coryphen 325 Codeine 30 Tab; Coryphen 650 Codeine 30 Tab; Cotabs; Cotrifed; Cough Syr W Codeine Diphenhyd HCl & Ammon Cl; Cough Syr W.cod. Pseudoephed.hcl Guaifenesin; Cough Syrup; Cough Syrup With Codeine; Cough and Allergy Syrup With Codeine; Covan Syrup; Damylin Avec Codeine Sirop; Damylin With Codeine Syrup; Dex-Tuss; Dexphen w/ Codeine; Dimetane Expectorant C; Dimetane Expectorant-C Syr; Dimetapp-C; Dimetapp-C Syr; Empracet-30; Empracet-60; EndaCof C; EndaCof DC; EndaCof-C; Endal CD; Exdol 15tab; Exdol 30tab; Exdol 8 Tab; Exdol-15; Exdol-30; Exdol-8; ExeClear C; Fioricet with Codeine; Fiorinal with Codeine; Fiorinal-C 1/2; Fiorinal-C 1/4; G Tussin AC; Ganituss Nr; Guaiatussin AC; Guaiatussin AC Sugar Free; Guaifenesin AC; Guaifenesin DAC; Guaifenesin and Codeine Phosphate; Guaifenesin and Codeine Phosphate SF; Histex Ac; Iophen C NR; Lexuss 210; Linctus Codeine Blanc; Lortuss EX; M-clear Wc; M-end Max D; M-end PE; M-end Wc; MAR-COF CG Expectorant; Mar-cof BP; Maxi-Tuss AC; Maxi-Tuss CD; Mersyndol With Codeine; Mesehist WC; Methoxacet-C 1/8; Methoxisal-C 1/2; Methoxisal-C 1/4; Methoxisal-C 1/8; Muscle & Back Pain Relief - 8; Muscle & Back Pain Relief-8; Muscle and Back Pain Relief - 8 Tablets; Muscle and Back Pain Relief Caplets; Muscle and Back Pain Relief-8; Nasotuss; Neo AC; Ninjacof-XG; Notuss PE; Notuss-NX; Notuss-NXD; Novahistex C; Novo Ac and C 8mg Tab; Novo-gesic C15; Novo-gesic C30; Novo-gesic-C8; Nu-acetaco #1; Oradrine Tablets; PHL-acet-codeine 30; PHL-acet-codeine 60; PMS-acetaminophen With Codeine Elixir; PMS-codeine; PMS-pharnal-C 1/4 Capsules; PMS-pharnal-C1/2 Capsules; Painex Tab 0.25gr; Painex Tab 0.5gr; Parafon Forte C8 W Codeine Tab; Paveral Liq 10mg/ml; Pentuss Srs; Phenaphen No 2 Cap; Phenaphen No 3 Cap; Phenaphen No 4 Cap; Phenaphen No.2 Cap; Phenaphen No.3 Cap; Phenaphen No.4 Cap; Phenylhistine DH; Phrenilin; Pluratuss; Poly Hist NC; Poly-Tussin AC; Poly-tussin; Poly-tussin D; Pracet 30; Pro-clear Ac; Pro-red Ac; Procet-30; Prometh with Codeine; Promethazine HCl and Codeine Phosphate; Promethazine HCl, Phenylephrine HCl and Codeine Phosphate; Promethazine HCl, Phenylephrine HCl, Codeine Phosphate; Promethazine Hydrochloride Phenylephrine Hydrochloride and Codeine Phosphate; Promethazine Hydrochloride and Codeine Phosphate; Promethazine Hydrochloride, Phenylephrine Hydrochloride and Codeine Phosphate; Promethazine VC With Codeine; Promethazine VC with Codeine; Promethazine Vc With Codeine; Promethazine Vc With Codine; Promethazine With Codeine; Promethazine with Codeine; Pronal - C1/2 Capsules; Pronal C1/4 Capsules; Pseudodine C; Ratio-codeine; RelCof-C; Robafen AC; Robaxacet-8; Robaxisal C 1/2; Robaxisal C 1/4; Robaxisal C-1/8 Tablets; Robitussin Ac; Robitussin Syrup With Codeine; Rounox Avec Codeine 15tab; Rounox Codeine 30 Tab; Rounox Codeine 60 Tab; Routec and Codeine 30 - Tab; Rydex; Sinutab With Codeine Tablets; Soma; Spasmhalt-8; Spasmhalt-asa-8; Stanley Syrup W Codeine Phosphate; Statuss Green; Suppress Cough Syr W.cod.diphen.hcl Amm.chl.; TYLENOL with Codeine; Tamicode Tablets; Terpin Hydrate Codeine Elx CF; Teva-codeine; Teva-cotridin; Teva-cotridin Expectorant; Teva-emtec-30; Teva-lenoltec No. 1; Teva-lenoltec No. 2; Teva-lenoltec No. 3; Teva-lenoltec No. 4; Teva-tecnal C 1/2; Teva-tecnal C 1/4; Theracodeine-300; Tl-hist CD; Tl-hist Cm; Triacin-C; Trianal C¼; Trianal C½; Triatec-30; Triatec-8; Triatec-8 Fort; Tricode AR; Tricode GF; Tusnel C; Tussaminic C Forte Syrup; Tussaminic C Pediatric Syrup; Tuxarin; Tuzistra XR; Tylenol No 1 Tab; Tylenol No.1 Caplets; Tylenol No.1 Forte Caplets; Tylenol No1 Forte Tablets With Codeine; Tylenol W Codeine No2 Tab; Tylenol W Codeine No3 Tab; Tylenol W Codeine No4 Tab; Tylenol With Codeine Elixir; Tylenol With Codeine No. 2 - Tab; Tylenol With Codeine No. 3 - Tab; Tylenol With Codeine No. 4; Virtussin A/C; Virtussin AC; Virtussin Ac W/alc; Virtussin DAC; Wampole-acetaminophen/codeine/caffeine; Z-tuss Ac; Z-tuss E; Zodryl AC 25; Zodryl AC 30; Zodryl AC 35; Zodryl AC 40; Zodryl AC 50; Zodryl AC 60; Zodryl AC 80; Zodryl DAC 25; Zodryl DAC 30; Zodryl DAC 35; Zodryl DAC 40; Zodryl DAC 50; Zodryl DAC 60; Zodryl DAC 80; Zodryl DEC 25; Zodryl DEC 30; Zodryl DEC 35; Zodryl DEC 40; Zodryl DEC 50; Zodryl DEC 60; Zodryl DEC 80; Zotex-C

> <INTERNATIONAL_BRANDS>
Actacode; Bisoltus; Bromophar; Bronchicum; Bronchodine; Codant; Codedrill; Codein; Codeisan; Coderpina; Codicalm; Codicept; Codinex; Coducept; Cougel; Coutan; Dinco; Farmacod; Galcodine; Pectoral; Tussoret

> <SALTS>
Codeine hydrochloride; Codeine monohydrate; Codeine phosphate; Codeine phosphate hemihydrate; Codeine sulfate; Codeine sulfate anhydrous

$$$$
327
  Mrv0541 02231214362D          

 24 28  0  0  1  0            999 V2000
    1.9356   -0.2231    0.0000 O   0  0  0  0  0  0  0  0  0  0  0  0
    1.7349   -2.3527    0.0000 O   0  0  0  0  0  0  0  0  0  0  0  0
    1.7349    1.8149    0.0000 O   0  0  0  0  0  0  0  0  0  0  0  0
    5.3440   -1.0939    0.0000 N   0  0  0  0  0  0  0  0  0  0  0  0
    3.2006   -0.6814    0.0000 C   0  0  1  0  0  0  0  0  0  0  0  0
    3.9151   -1.0939    0.0000 C   0  0  2  0  0  0  0  0  0  0  0  0
    4.6296   -0.6814    0.0000 C   0  0  1  0  0  0  0  0  0  0  0  0
    2.4861   -1.0939    0.0000 C   0  0  2  0  0  0  0  0  0  0  0  0
    3.6773   -0.0764    0.0000 C   0  0  0  0  0  0  0  0  0  0  0  0
    3.2006    0.1436    0.0000 C   0  0  0  0  0  0  0  0  0  0  0  0
    3.9151   -1.9190    0.0000 C   0  0  0  0  0  0  0  0  0  0  0  0
    4.6296    0.1436    0.0000 C   0  0  0  0  0  0  0  0  0  0  0  0
    4.8506   -0.0764    0.0000 C   0  0  0  0  0  0  0  0  0  0  0  0
    3.9151    0.5561    0.0000 C   0  0  0  0  0  0  0  0  0  0  0  0
    3.2006   -2.3315    0.0000 C   0  0  0  0  0  0  0  0  0  0  0  0
    2.4861   -1.9190    0.0000 C   0  0  0  0  0  0  0  0  0  0  0  0
    2.4861    0.5561    0.0000 C   0  0  0  0  0  0  0  0  0  0  0  0
    5.9350   -1.7290    0.0000 C   0  0  0  0  0  0  0  0  0  0  0  0
    3.9151    1.3811    0.0000 C   0  0  0  0  0  0  0  0  0  0  0  0
    2.4861    1.3811    0.0000 C   0  0  0  0  0  0  0  0  0  0  0  0
    3.2006    1.7936    0.0000 C   0  0  0  0  0  0  0  0  0  0  0  0
    4.3612   -1.6255    0.0000 H   0  0  0  0  0  0  0  0  0  0  0  0
    4.8675   -1.3334    0.0000 H   0  0  0  0  0  0  0  0  0  0  0  0
    1.8196   -1.2870    0.0000 H   0  0  0  0  0  0  0  0  0  0  0  0
  1  8  1  0  0  0  0
  1 17  1  0  0  0  0
  2 16  2  0  0  0  0
  3 20  1  0  0  0  0
  4  7  1  0  0  0  0
  4 13  1  0  0  0  0
  4 18  1  0  0  0  0
  5  6  1  0  0  0  0
  5  8  1  0  0  0  0
  5  9  1  1  0  0  0
  5 10  1  0  0  0  0
  6  7  1  0  0  0  0
  6 11  1  0  0  0  0
  6 22  1  1  0  0  0
  7 12  1  0  0  0  0
  7 23  1  6  0  0  0
  8 16  1  0  0  0  0
  8 24  1  1  0  0  0
  9 13  1  0  0  0  0
 10 14  2  0  0  0  0
 10 17  1  0  0  0  0
 11 15  1  0  0  0  0
 12 14  1  0  0  0  0
 14 19  1  0  0  0  0
 15 16  1  0  0  0  0
 17 20  2  0  0  0  0
 19 21  2  0  0  0  0
 20 21  1  0  0  0  0
M  END
> <DATABASE_ID>
DB00327

> <DATABASE_NAME>
drugbank

> <SMILES>
[H][C@@]12OC3=C(O)C=CC4=C3[C@@]11CCN(C)[C@]([H])(C4)[C@]1([H])CCC2=O

> <INCHI_IDENTIFIER>
InChI=1S/C17H19NO3/c1-18-7-6-17-10-3-5-13(20)16(17)21-15-12(19)4-2-9(14(15)17)8-11(10)18/h2,4,10-11,16,19H,3,5-8H2,1H3/t10-,11+,16-,17-/m0/s1

> <INCHI_KEY>
WVLOADHCBXTIJK-YNHQPCIGSA-N

> <FORMULA>
C17H19NO3

> <MOLECULAR_WEIGHT>
285.3377

> <EXACT_MASS>
285.136493479

> <JCHEM_ACCEPTOR_COUNT>
4

> <JCHEM_AVERAGE_POLARIZABILITY>
30.023248428425724

> <JCHEM_BIOAVAILABILITY>
1

> <JCHEM_DONOR_COUNT>
1

> <JCHEM_FORMAL_CHARGE>
0

> <JCHEM_GHOSE_FILTER>
1

> <JCHEM_IUPAC>
(1S,5R,13R,17R)-10-hydroxy-4-methyl-12-oxa-4-azapentacyclo[9.6.1.0¹,¹³.0⁵,¹⁷.0⁷,¹⁸]octadeca-7(18),8,10-trien-14-one

> <ALOGPS_LOGP>
1.69

> <JCHEM_LOGP>
1.6227496759764108

> <ALOGPS_LOGS>
-1.81

> <JCHEM_MDDR_LIKE_RULE>
0

> <JCHEM_NUMBER_OF_RINGS>
5

> <JCHEM_PHYSIOLOGICAL_CHARGE>
1

> <JCHEM_PKA>
18.00207891919619

> <JCHEM_PKA_STRONGEST_ACIDIC>
10.107628114711872

> <JCHEM_PKA_STRONGEST_BASIC>
8.586674910405563

> <JCHEM_POLAR_SURFACE_AREA>
49.77

> <JCHEM_REFRACTIVITY>
78.26240000000001

> <JCHEM_ROTATABLE_BOND_COUNT>
0

> <JCHEM_RULE_OF_FIVE>
1

> <ALOGPS_SOLUBILITY>
4.39e+00 g/l

> <JCHEM_TRADITIONAL_IUPAC>
hydromorphone

> <JCHEM_VEBER_RULE>
0

> <DRUGBANK_ID>
DB00327

> <SECONDARY_ACCESSION_NUMBERS>
APRD01021

> <DRUG_GROUPS>
approved; illicit

> <GENERIC_NAME>
Hydromorphone

> <SYNONYMS>
(-)-(5R)-4,5-Epoxy-3-hydroxy-9α-methylmorphinan-6-one; 4,5-Epoxy-3-hydroxy-17-methylmorphinan-6-one; 4,5alpha-Epoxy-3-hydroxy-17-methyl-6-morphinanone; 6-Deoxy-7,8-dihydro-6-oxomorphine; 7,8-Dihydromorphinone; Dihydromorfinon; Dihydromorphinone; Dimorphone; Hidromorfona; Hydromorfona; Hydromorphone; Hydromorphonum; Idromorfone

> <PRODUCTS>
Apo-hydromorphone; Apo-hydromorphone CR; Bar-hydromorphone CR; Dilaudid; Dilaudid Hp; Dilaudid-HP; Dilaudid-HP-plus; Dilaudid-XP; Exalgo; HYDROmorphone Hydrochloride; Hydromorph Contin; Hydromorph Contin-controlled Release Cap - 12mg; Hydromorph Contin-controlled Release Cap - 18mg; Hydromorph Contin-controlled Release Cap - 24mg; Hydromorph Contin-controlled Release Cap - 30mg; Hydromorph Contin-controlled Release Cap - 3mg; Hydromorph Contin-controlled Release Cap - 6mg; Hydromorph.ir - 2mg; Hydromorph.ir - 4mg; Hydromorph.ir - 8mg; Hydromorphone; Hydromorphone HCl; Hydromorphone HCl Tab 2mg USP; Hydromorphone HCl Tab 4mg USP; Hydromorphone Hp 10; Hydromorphone Hp 20; Hydromorphone Hp 50; Hydromorphone Hp Forte Injection; Hydromorphone Hydrochloride; Hydromorphone Hydrochloride Extended-Release; Hydromorphone Hydrochloride Injection; Hydromorphone Hydrochloride Injection Hp 10; Hydromorphone Hydrochloride Injection Hp 50; Hydromorphone Hydrochloride Injection Hp Forte; Hydromorphone Hydrochloride Injection USP; Hydromorphone Hydrochloride Injection, USP; Hydromorphone Hydrochloride Sup 3mg; Hydromorphone hydrochloride; Hyrdomorphone Hydrochloride; Jurnista; PHL-hydromorphone; PHL-hydromorphone -syr 1mg/ml; PMS Hydromorphone Sirop 1mg/ml; PMS Hydromorphone Suppositoire 3mg; PMS-hydromorphone Tab 1mg; PMS-hydromorphone Tab 2mg; PMS-hydromorphone Tab 4mg; PMS-hydromorphone Tab 8mg; Palladone; Palladone XL - 12mg; Palladone XL - 16mg; Palladone XL - 24mg; Teva-hydromorphone

> <SALTS>
Hydromorphone hydrochloride; Hydromorphone sulfate

$$$$
349
  Mrv0541 02231214372D          

 21 23  0  0  0  0            999 V2000
    2.8172   -2.3593    0.0000 Cl  0  0  0  0  0  0  0  0  0  0  0  0
    5.1124    1.1545    0.0000 O   0  0  0  0  0  0  0  0  0  0  0  0
    2.6107    2.3593    0.0000 O   0  0  0  0  0  0  0  0  0  0  0  0
    4.1245    0.1666    0.0000 N   0  0  0  0  0  0  0  0  0  0  0  0
    2.4543    0.9709    0.0000 N   0  0  0  0  0  0  0  0  0  0  0  0
    3.3812   -0.1914    0.0000 C   0  0  0  0  0  0  0  0  0  0  0  0
    2.6379    0.1666    0.0000 C   0  0  0  0  0  0  0  0  0  0  0  0
    3.7937    1.6159    0.0000 C   0  0  0  0  0  0  0  0  0  0  0  0
    4.3081    0.9709    0.0000 C   0  0  0  0  0  0  0  0  0  0  0  0
    2.9687    1.6159    0.0000 C   0  0  0  0  0  0  0  0  0  0  0  0
    4.7695   -0.3478    0.0000 C   0  0  0  0  0  0  0  0  0  0  0  0
    3.4586   -1.0473    0.0000 C   0  0  0  0  0  0  0  0  0  0  0  0
    1.9205   -0.3065    0.0000 C   0  0  0  0  0  0  0  0  0  0  0  0
    1.6500    1.1545    0.0000 C   0  0  0  0  0  0  0  0  0  0  0  0
    2.7524   -1.5367    0.0000 C   0  0  0  0  0  0  0  0  0  0  0  0
    1.9781   -1.1639    0.0000 C   0  0  0  0  0  0  0  0  0  0  0  0
    5.5375   -0.0464    0.0000 C   0  0  0  0  0  0  0  0  0  0  0  0
    4.6466   -1.1636    0.0000 C   0  0  0  0  0  0  0  0  0  0  0  0
    6.1825   -0.5608    0.0000 C   0  0  0  0  0  0  0  0  0  0  0  0
    5.2915   -1.6780    0.0000 C   0  0  0  0  0  0  0  0  0  0  0  0
    6.0595   -1.3765    0.0000 C   0  0  0  0  0  0  0  0  0  0  0  0
  1 15  1  0  0  0  0
  2  9  2  0  0  0  0
  3 10  2  0  0  0  0
  4  6  1  0  0  0  0
  4  9  1  0  0  0  0
  4 11  1  0  0  0  0
  5  7  1  0  0  0  0
  5 10  1  0  0  0  0
  5 14  1  0  0  0  0
  6  7  2  0  0  0  0
  6 12  1  0  0  0  0
  7 13  1  0  0  0  0
  8  9  1  0  0  0  0
  8 10  1  0  0  0  0
 11 17  2  0  0  0  0
 11 18  1  0  0  0  0
 12 15  2  0  0  0  0
 13 16  2  0  0  0  0
 15 16  1  0  0  0  0
 17 19  1  0  0  0  0
 18 20  2  0  0  0  0
 19 21  2  0  0  0  0
 20 21  1  0  0  0  0
M  END
> <DATABASE_ID>
DB00349

> <DATABASE_NAME>
drugbank

> <SMILES>
CN1C2=C(C=C(Cl)C=C2)N(C2=CC=CC=C2)C(=O)CC1=O

> <INCHI_IDENTIFIER>
InChI=1S/C16H13ClN2O2/c1-18-13-8-7-11(17)9-14(13)19(16(21)10-15(18)20)12-5-3-2-4-6-12/h2-9H,10H2,1H3

> <INCHI_KEY>
CXOXHMZGEKVPMT-UHFFFAOYSA-N

> <FORMULA>
C16H13ClN2O2

> <MOLECULAR_WEIGHT>
300.74

> <EXACT_MASS>
300.066555377

> <JCHEM_ACCEPTOR_COUNT>
2

> <JCHEM_AVERAGE_POLARIZABILITY>
30.066074049985147

> <JCHEM_BIOAVAILABILITY>
1

> <JCHEM_DONOR_COUNT>
0

> <JCHEM_FORMAL_CHARGE>
0

> <JCHEM_GHOSE_FILTER>
1

> <JCHEM_IUPAC>
7-chloro-1-methyl-5-phenyl-2,3,4,5-tetrahydro-1H-1,5-benzodiazepine-2,4-dione

> <ALOGPS_LOGP>
2.14

> <JCHEM_LOGP>
2.554375973333333

> <ALOGPS_LOGS>
-3.26

> <JCHEM_MDDR_LIKE_RULE>
0

> <JCHEM_NUMBER_OF_RINGS>
3

> <JCHEM_PHYSIOLOGICAL_CHARGE>
-1

> <JCHEM_PKA_STRONGEST_ACIDIC>
4.068303914570974

> <JCHEM_PKA_STRONGEST_BASIC>
-6.723067238972568

> <JCHEM_POLAR_SURFACE_AREA>
40.620000000000005

> <JCHEM_REFRACTIVITY>
80.29860000000004

> <JCHEM_ROTATABLE_BOND_COUNT>
1

> <JCHEM_RULE_OF_FIVE>
1

> <ALOGPS_SOLUBILITY>
1.64e-01 g/l

> <JCHEM_TRADITIONAL_IUPAC>
clobazam

> <JCHEM_VEBER_RULE>
0

> <DRUGBANK_ID>
DB00349

> <SECONDARY_ACCESSION_NUMBERS>
APRD00307

> <DRUG_GROUPS>
approved; illicit

> <GENERIC_NAME>
Clobazam

> <SYNONYMS>
1-phenyl-5-methyl-8-chloro-1,2,4,5-tetrahydro-2,4-dioxo-3H-1,5-benzodiazepine; 7-Chloro-1-methyl-5-phenyl-1,5-dihydro-benzo[b][1,4]diazepine-2,4-dione; Clobazam; Clobazamum

> <PRODUCTS>
Apo-clobazam; Clobazam; Clobazam-10; Dom-clobazam; Frisium Tab 10mg; Frisium Tablet 10mg; Frisium Tablets 10mg; Ntp-clobazam; Onfi; PMS-clobazam; Ratio-clobazam; Sympazan; Teva-clobazam

> <INTERNATIONAL_BRANDS>
Aedon; Castilium; Clobam; Clobamax; Frisium; Grifoclobam; Mystan; Noiafren; Sederlona; Urbanil; Urbanol; Urbanyl; Venium

$$$$
371
  Mrv0541 02231214382D          

 15 14  0  0  0  0            999 V2000
    6.3799   -0.4529    0.0000 O   0  0  0  0  0  0  0  0  0  0  0  0
    3.5220   -0.4529    0.0000 O   0  0  0  0  0  0  0  0  0  0  0  0
    7.0944    0.7846    0.0000 O   0  0  0  0  0  0  0  0  0  0  0  0
    2.8075   -1.6905    0.0000 O   0  0  0  0  0  0  0  0  0  0  0  0
    7.8089   -0.4529    0.0000 N   0  0  0  0  0  0  0  0  0  0  0  0
    2.0930   -0.4529    0.0000 N   0  0  0  0  0  0  0  0  0  0  0  0
    4.9509   -0.4529    0.0000 C   0  0  0  0  0  0  0  0  0  0  0  0
    4.5384    0.2615    0.0000 C   0  0  0  0  0  0  0  0  0  0  0  0
    5.6655   -0.0404    0.0000 C   0  0  0  0  0  0  0  0  0  0  0  0
    4.2365   -0.8654    0.0000 C   0  0  0  0  0  0  0  0  0  0  0  0
    5.3634   -1.1675    0.0000 C   0  0  0  0  0  0  0  0  0  0  0  0
    4.9509    0.9760    0.0000 C   0  0  0  0  0  0  0  0  0  0  0  0
    4.5384    1.6905    0.0000 C   0  0  0  0  0  0  0  0  0  0  0  0
    7.0944   -0.0404    0.0000 C   0  0  0  0  0  0  0  0  0  0  0  0
    2.8075   -0.8654    0.0000 C   0  0  0  0  0  0  0  0  0  0  0  0
  1  9  1  0  0  0  0
  1 14  1  0  0  0  0
  2 10  1  0  0  0  0
  2 15  1  0  0  0  0
  3 14  2  0  0  0  0
  4 15  2  0  0  0  0
  5 14  1  0  0  0  0
  6 15  1  0  0  0  0
  7  8  1  0  0  0  0
  7  9  1  0  0  0  0
  7 10  1  0  0  0  0
  7 11  1  0  0  0  0
  8 12  1  0  0  0  0
 12 13  1  0  0  0  0
M  END
> <DATABASE_ID>
DB00371

> <DATABASE_NAME>
drugbank

> <SMILES>
CCCC(C)(COC(N)=O)COC(N)=O

> <INCHI_IDENTIFIER>
InChI=1S/C9H18N2O4/c1-3-4-9(2,5-14-7(10)12)6-15-8(11)13/h3-6H2,1-2H3,(H2,10,12)(H2,11,13)

> <INCHI_KEY>
NPPQSCRMBWNHMW-UHFFFAOYSA-N

> <FORMULA>
C9H18N2O4

> <MOLECULAR_WEIGHT>
218.2502

> <EXACT_MASS>
218.126657074

> <JCHEM_ACCEPTOR_COUNT>
2

> <JCHEM_AVERAGE_POLARIZABILITY>
22.653083876522018

> <JCHEM_BIOAVAILABILITY>
1

> <JCHEM_DONOR_COUNT>
2

> <JCHEM_FORMAL_CHARGE>
0

> <JCHEM_GHOSE_FILTER>
1

> <JCHEM_IUPAC>
2-[(carbamoyloxy)methyl]-2-methylpentyl carbamate

> <ALOGPS_LOGP>
1.06

> <JCHEM_LOGP>
0.9272528839999998

> <ALOGPS_LOGS>
-1.95

> <JCHEM_MDDR_LIKE_RULE>
0

> <JCHEM_NUMBER_OF_RINGS>
0

> <JCHEM_PHYSIOLOGICAL_CHARGE>
0

> <JCHEM_PKA>
15.63114431855761

> <JCHEM_PKA_STRONGEST_ACIDIC>
15.171696837219113

> <JCHEM_POLAR_SURFACE_AREA>
104.64

> <JCHEM_REFRACTIVITY>
53.03669999999999

> <JCHEM_ROTATABLE_BOND_COUNT>
8

> <JCHEM_RULE_OF_FIVE>
1

> <ALOGPS_SOLUBILITY>
2.47e+00 g/l

> <JCHEM_TRADITIONAL_IUPAC>
sowell

> <JCHEM_VEBER_RULE>
0

> <DRUGBANK_ID>
DB00371

> <SECONDARY_ACCESSION_NUMBERS>
APRD01095

> <DRUG_GROUPS>
approved; illicit

> <GENERIC_NAME>
Meprobamate

> <SYNONYMS>
Meprobamat; Meprobamate; Meprobamato; Meprobamatum; Meprobamic acid

> <PRODUCTS>
282 Mep Tab; Apo Meprobamate Tab 400mg; Equagesic; Equagesic Tablets; Equanil Tablets 400mg; Meditran 400mg; Meprobamate; Meprobamate Tab 400mg; Novo-mepro 200mg; Novo-mepro 400mg

> <INTERNATIONAL_BRANDS>
Equanil; Meprospan; Miltown

$$$$
404
  Mrv0541 02231214392D          

 22 25  0  0  0  0            999 V2000
    1.6500   -0.2321    0.0000 Cl  0  0  0  0  0  0  0  0  0  0  0  0
    4.8159   -1.3269    0.0000 N   0  0  0  0  0  0  0  0  0  0  0  0
    5.2284    0.4805    0.0000 N   0  0  0  0  0  0  0  0  0  0  0  0
    6.1244   -1.5631    0.0000 N   0  0  0  0  0  0  0  0  0  0  0  0
    5.7352   -2.2849    0.0000 N   0  0  0  0  0  0  0  0  0  0  0  0
    4.0726   -0.9689    0.0000 C   0  0  0  0  0  0  0  0  0  0  0  0
    3.8890   -0.1645    0.0000 C   0  0  0  0  0  0  0  0  0  0  0  0
    5.5592   -0.9689    0.0000 C   0  0  0  0  0  0  0  0  0  0  0  0
    4.4034    0.4805    0.0000 C   0  0  0  0  0  0  0  0  0  0  0  0
    5.7428   -0.1645    0.0000 C   0  0  0  0  0  0  0  0  0  0  0  0
    4.9281   -2.1392    0.0000 C   0  0  0  0  0  0  0  0  0  0  0  0
    3.4517   -1.5630    0.0000 C   0  0  0  0  0  0  0  0  0  0  0  0
    3.0718    0.1014    0.0000 C   0  0  0  0  0  0  0  0  0  0  0  0
    4.0454    1.2238    0.0000 C   0  0  0  0  0  0  0  0  0  0  0  0
    2.6286   -1.3160    0.0000 C   0  0  0  0  0  0  0  0  0  0  0  0
    2.4374   -0.4783    0.0000 C   0  0  0  0  0  0  0  0  0  0  0  0
    4.3328   -2.7104    0.0000 C   0  0  0  0  0  0  0  0  0  0  0  0
    3.2227    1.2854    0.0000 C   0  0  0  0  0  0  0  0  0  0  0  0
    4.5102    1.9054    0.0000 C   0  0  0  0  0  0  0  0  0  0  0  0
    2.8648    2.0288    0.0000 C   0  0  0  0  0  0  0  0  0  0  0  0
    4.1523    2.6488    0.0000 C   0  0  0  0  0  0  0  0  0  0  0  0
    3.3296    2.7104    0.0000 C   0  0  0  0  0  0  0  0  0  0  0  0
  1 16  1  0  0  0  0
  2  6  1  0  0  0  0
  2  8  1  0  0  0  0
  2 11  1  0  0  0  0
  3  9  2  0  0  0  0
  3 10  1  0  0  0  0
  4  5  1  0  0  0  0
  4  8  2  0  0  0  0
  5 11  2  0  0  0  0
  6  7  2  0  0  0  0
  6 12  1  0  0  0  0
  7  9  1  0  0  0  0
  7 13  1  0  0  0  0
  8 10  1  0  0  0  0
  9 14  1  0  0  0  0
 11 17  1  0  0  0  0
 12 15  2  0  0  0  0
 13 16  2  0  0  0  0
 14 18  2  0  0  0  0
 14 19  1  0  0  0  0
 15 16  1  0  0  0  0
 18 20  1  0  0  0  0
 19 21  2  0  0  0  0
 20 22  2  0  0  0  0
 21 22  1  0  0  0  0
M  END
> <DATABASE_ID>
DB00404

> <DATABASE_NAME>
drugbank

> <SMILES>
CC1=NN=C2CN=C(C3=CC=CC=C3)C3=C(C=CC(Cl)=C3)N12

> <INCHI_IDENTIFIER>
InChI=1S/C17H13ClN4/c1-11-20-21-16-10-19-17(12-5-3-2-4-6-12)14-9-13(18)7-8-15(14)22(11)16/h2-9H,10H2,1H3

> <INCHI_KEY>
VREFGVBLTWBCJP-UHFFFAOYSA-N

> <FORMULA>
C17H13ClN4

> <MOLECULAR_WEIGHT>
308.765

> <EXACT_MASS>
308.082874143

> <JCHEM_ACCEPTOR_COUNT>
3

> <JCHEM_AVERAGE_POLARIZABILITY>
32.21940045856445

> <JCHEM_BIOAVAILABILITY>
1

> <JCHEM_DONOR_COUNT>
0

> <JCHEM_FORMAL_CHARGE>
0

> <JCHEM_GHOSE_FILTER>
1

> <JCHEM_IUPAC>
12-chloro-3-methyl-9-phenyl-2,4,5,8-tetraazatricyclo[8.4.0.0²,⁶]tetradeca-1(10),3,5,8,11,13-hexaene

> <ALOGPS_LOGP>
2.23

> <JCHEM_LOGP>
2.3741000000000003

> <ALOGPS_LOGS>
-3.98

> <JCHEM_MDDR_LIKE_RULE>
0

> <JCHEM_NUMBER_OF_RINGS>
4

> <JCHEM_PHYSIOLOGICAL_CHARGE>
0

> <JCHEM_PKA_STRONGEST_ACIDIC>
18.2996362847328

> <JCHEM_PKA_STRONGEST_BASIC>
5.076680256062132

> <JCHEM_POLAR_SURFACE_AREA>
43.07

> <JCHEM_REFRACTIVITY>
98.87900000000002

> <JCHEM_ROTATABLE_BOND_COUNT>
1

> <JCHEM_RULE_OF_FIVE>
1

> <ALOGPS_SOLUBILITY>
3.24e-02 g/l

> <JCHEM_TRADITIONAL_IUPAC>
neurol

> <JCHEM_VEBER_RULE>
0

> <DRUGBANK_ID>
DB00404

> <SECONDARY_ACCESSION_NUMBERS>
APRD00280; DB05925; DB05690

> <DRUG_GROUPS>
approved; illicit; investigational

> <GENERIC_NAME>
Alprazolam

> <SYNONYMS>
8-Chloro-1-methyl-6-phenyl-4H-s-triazolo(4,3-a)(1,4)benzodiazepine; Alprazolam

> <PRODUCTS>
ALPRAZOLAM extended release; Alprazolam; Alprazolam ER; Alprazolam Extended Release; Alprazolam Extended-Release; Alprazolam Extended-release; Alprazolam Tablets 0.25; Alprazolam Tablets 0.5mg; Alprazolam Ts; Alprazolam XR; Alprazolam-0.25; Alprazolam-0.5; Apo-alpraz; Apo-alpraz Ts; Gabazolamine; Gabazolamine-0.5; Jamp Alprazolam; Jamp-alprazolam; Mylan-alprazolam; Nat-alprazolam; Niravam; Ntp-alprazolam; Nu-alpraz Tab 0.25mg; Nu-alpraz Tab 0.5mg; Ratio-alprazolam; Riva-alprazolam; Riva-alprazolam 0.25 mg; Riva-alprazolam 0.5 mg; Sentrazolam AM; Teva-alprazolam; Xanax; Xanax Ts; Xanax XR

> <INTERNATIONAL_BRANDS>
Alplax; Alprazolan; Alpronax; Alprox; Alviz; Cassadan; Esparon; Ralozam; Restyl; Solanax; Staccato alprazolam; Tafil; Trankimazin; Tranquinal; Xanor

$$$$

  Mrv0541 09031308382D          

 25 27  0  0  1  0            999 V2000
    7.6955   -5.8135    0.0000 C   0  0  1  0  0  0  0  0  0  0  0  0
    8.4043   -6.2242    0.0000 C   0  0  0  0  0  0  0  0  0  0  0  0
    6.9797   -6.2242    0.0000 C   0  0  2  0  0  0  0  0  0  0  0  0
    7.6989   -4.9925    0.0000 C   0  0  0  0  0  0  0  0  0  0  0  0
    8.4043   -7.0523    0.0000 C   0  0  0  0  0  0  0  0  0  0  0  0
    9.1200   -5.8135    0.0000 C   0  0  0  0  0  0  0  0  0  0  0  0
    6.9797   -7.0523    0.0000 C   0  0  0  0  0  0  0  0  0  0  0  0
    6.2674   -5.8101    0.0000 C   0  0  0  0  0  0  0  0  0  0  0  0
    6.9833   -4.5786    0.0000 C   0  0  0  0  0  0  0  0  0  0  0  0
    7.6955   -7.4627    0.0000 O   0  0  0  0  0  0  0  0  0  0  0  0
    9.1200   -7.4627    0.0000 C   0  0  0  0  0  0  0  0  0  0  0  0
    9.8289   -6.2242    0.0000 C   0  0  0  0  0  0  0  0  0  0  0  0
    9.1200   -4.9891    0.0000 O   0  0  0  0  0  0  0  0  0  0  0  0
    6.2674   -4.9891    0.0000 C   0  0  0  0  0  0  0  0  0  0  0  0
    6.9867   -3.7575    0.0000 C   0  0  0  0  0  0  0  0  0  0  0  0
    9.8289   -7.0523    0.0000 C   0  0  0  0  0  0  0  0  0  0  0  0
   10.5411   -7.4627    0.0000 C   0  0  0  0  0  0  0  0  0  0  0  0
   11.2569   -7.0487    0.0000 C   0  0  0  0  0  0  0  0  0  0  0  0
   11.9656   -7.4593    0.0000 C   0  0  0  0  0  0  0  0  0  0  0  0
   12.6814   -7.0487    0.0000 C   0  0  0  0  0  0  0  0  0  0  0  0
   13.3901   -7.4593    0.0000 C   0  0  0  0  0  0  0  0  0  0  0  0
    8.3657   -5.3925    0.0000 H   0  0  0  0  0  0  0  0  0  0  0  0
    6.1587   -6.7681    0.0000 H   0  0  0  0  0  0  0  0  0  0  0  0
    6.9797   -7.8773    0.0000 C   0  0  0  0  0  0  0  0  0  0  0  0
    6.2652   -7.4648    0.0000 C   0  0  0  0  0  0  0  0  0  0  0  0
  1  2  1  0  0  0  0
  1  3  1  0  0  0  0
  1  4  1  0  0  0  0
  2  5  2  0  0  0  0
  2  6  1  0  0  0  0
  3  7  1  0  0  0  0
  3  8  1  0  0  0  0
  4  9  2  0  0  0  0
  5 10  1  0  0  0  0
  5 11  1  0  0  0  0
  6 12  2  0  0  0  0
  6 13  1  0  0  0  0
  8 14  1  0  0  0  0
  9 15  1  0  0  0  0
 11 16  2  0  0  0  0
 16 17  1  0  0  0  0
 17 18  1  0  0  0  0
 18 19  1  0  0  0  0
 19 20  1  0  0  0  0
 20 21  1  0  0  0  0
  7 10  1  0  0  0  0
  9 14  1  0  0  0  0
 12 16  1  0  0  0  0
  1 22  1  6  0  0  0
  3 23  1  1  0  0  0
  7 24  1  0  0  0  0
  7 25  1  0  0  0  0
M  END
> <DATABASE_ID>
DB00470

> <DATABASE_NAME>
drugbank

> <SMILES>
[H][C@@]12C=C(C)CC[C@@]1([H])C(C)(C)OC1=C2C(O)=CC(CCCCC)=C1

> <INCHI_IDENTIFIER>
InChI=1S/C21H30O2/c1-5-6-7-8-15-12-18(22)20-16-11-14(2)9-10-17(16)21(3,4)23-19(20)13-15/h11-13,16-17,22H,5-10H2,1-4H3/t16-,17-/m1/s1

> <INCHI_KEY>
CYQFCXCEBYINGO-IAGOWNOFSA-N

> <FORMULA>
C21H30O2

> <MOLECULAR_WEIGHT>
314.4617

> <EXACT_MASS>
314.224580204

> <JCHEM_ACCEPTOR_COUNT>
2

> <JCHEM_AVERAGE_POLARIZABILITY>
38.956941218234675

> <JCHEM_BIOAVAILABILITY>
1

> <JCHEM_DONOR_COUNT>
1

> <JCHEM_FORMAL_CHARGE>
0

> <JCHEM_GHOSE_FILTER>
0

> <JCHEM_IUPAC>
(6aR,10aR)-6,6,9-trimethyl-3-pentyl-6H,6aH,7H,8H,10aH-benzo[c]isochromen-1-ol

> <ALOGPS_LOGP>
7.29

> <JCHEM_LOGP>
5.944157107333333

> <ALOGPS_LOGS>
-5.08

> <JCHEM_MDDR_LIKE_RULE>
0

> <JCHEM_NUMBER_OF_RINGS>
3

> <JCHEM_PHYSIOLOGICAL_CHARGE>
0

> <JCHEM_PKA_STRONGEST_ACIDIC>
9.342429150192967

> <JCHEM_PKA_STRONGEST_BASIC>
-4.893304388168227

> <JCHEM_POLAR_SURFACE_AREA>
29.46

> <JCHEM_REFRACTIVITY>
96.73350000000002

> <JCHEM_ROTATABLE_BOND_COUNT>
4

> <JCHEM_RULE_OF_FIVE>
0

> <ALOGPS_SOLUBILITY>
2.63e-03 g/l

> <JCHEM_TRADITIONAL_IUPAC>
THC

> <JCHEM_VEBER_RULE>
1

> <DRUGBANK_ID>
DB00470

> <SECONDARY_ACCESSION_NUMBERS>
APRD00571

> <DRUG_GROUPS>
approved; illicit

> <GENERIC_NAME>
Dronabinol

> <SYNONYMS>
(-)-delta9-trans-Tetrahydrocannabinol; 1-trans-delta-9-Tetrahydrocannabinol; 3-Pentyl-6,6,9-trimethyl-6a,7,8,10a-tetrahydro-6H-dibenzo(b,d)pyran-1-ol; 6,6,9-Trimethyl-3-pentyl-6a,7,8,10a-tetrahydro-6H-benzo[c]chromen-1-ol; delta-9-tetrahydrocannabinol; delta-9-THC; delta(1)-tetrahydrocannabinol; delta(9)-THC; delta9-tetrahydrocannabinol; Dronabinol; Dronabinolum; Tetrahydrocannabinol; THC; Δ9-tetrahydrocannabinol

> <PRODUCTS>
Dronabinol; Marinol; Marinol Cap 10mg; Sativex; Syndros

$$$$

  Mrv1718010311718302D          

 21 23  0  0  0  0            999 V2000
    1.5326   -0.3143    0.0000 N   0  3  0  0  0  0  0  0  0  0  0  0
    0.0998    0.0219    0.0000 C   0  0  0  0  0  0  0  0  0  0  0  0
    0.7431   -0.4897    0.0000 C   0  0  0  0  0  0  0  0  0  0  0  0
    0.7431    1.3669    0.0000 N   0  0  0  0  0  0  0  0  0  0  0  0
    1.8982    0.4312    0.0000 C   0  0  0  0  0  0  0  0  0  0  0  0
    0.0998    0.8553    0.0000 C   0  0  0  0  0  0  0  0  0  0  0  0
    1.5326    1.1916    0.0000 C   0  0  0  0  0  0  0  0  0  0  0  0
    2.0493   -0.9576    0.0000 O   0  5  0  0  0  0  0  0  0  0  0  0
   -0.6165   -0.3874    0.0000 C   0  0  0  0  0  0  0  0  0  0  0  0
    0.3095   -1.1916    0.0000 C   0  0  0  0  0  0  0  0  0  0  0  0
   -0.6165    1.2646    0.0000 C   0  0  0  0  0  0  0  0  0  0  0  0
    2.0493    1.8641    0.0000 N   0  0  0  0  0  0  0  0  0  0  0  0
   -1.3329    0.0073    0.0000 C   0  0  0  0  0  0  0  0  0  0  0  0
   -1.3329    0.8698    0.0000 C   0  0  0  0  0  0  0  0  0  0  0  0
   -2.0493   -0.4312    0.0000 Cl  0  0  0  0  0  0  0  0  0  0  0  0
   -0.5238   -1.1769    0.0000 C   0  0  0  0  0  0  0  0  0  0  0  0
    0.7042   -1.9080    0.0000 C   0  0  0  0  0  0  0  0  0  0  0  0
    1.7276    2.6244    0.0000 C   0  0  0  0  0  0  0  0  0  0  0  0
   -0.9527   -1.8933    0.0000 C   0  0  0  0  0  0  0  0  0  0  0  0
    0.2753   -2.6244    0.0000 C   0  0  0  0  0  0  0  0  0  0  0  0
   -0.5433   -2.6244    0.0000 C   0  0  0  0  0  0  0  0  0  0  0  0
  2  3  1  0  0  0  0
  3  1  2  0  0  0  0
  4  7  2  0  0  0  0
  5  1  1  0  0  0  0
  6  2  2  0  0  0  0
  7  5  1  0  0  0  0
  8  1  1  0  0  0  0
  9  2  1  0  0  0  0
 10  3  1  0  0  0  0
 11  6  1  0  0  0  0
 12  7  1  0  0  0  0
 13  9  2  0  0  0  0
 14 13  1  0  0  0  0
 15 13  1  0  0  0  0
 16 10  1  0  0  0  0
 17 10  2  0  0  0  0
 18 12  1  0  0  0  0
 19 16  2  0  0  0  0
 20 17  1  0  0  0  0
 21 19  1  0  0  0  0
  6  4  1  0  0  0  0
 20 21  2  0  0  0  0
 11 14  2  0  0  0  0
M  CHG  2   1   1   8  -1
M  END
> <DATABASE_ID>
DB00475

> <DATABASE_NAME>
drugbank

> <SMILES>
CNC1=NC2=C(C=C(Cl)C=C2)C(C2=CC=CC=C2)=[N+]([O-])C1

> <INCHI_IDENTIFIER>
InChI=1S/C16H14ClN3O/c1-18-15-10-20(21)16(11-5-3-2-4-6-11)13-9-12(17)7-8-14(13)19-15/h2-9H,10H2,1H3,(H,18,19)

> <INCHI_KEY>
ANTSCNMPPGJYLG-UHFFFAOYSA-N

> <FORMULA>
C16H14ClN3O

> <MOLECULAR_WEIGHT>
299.755

> <EXACT_MASS>
299.082539792

> <JCHEM_ACCEPTOR_COUNT>
3

> <JCHEM_ATOM_COUNT>
35

> <JCHEM_AVERAGE_POLARIZABILITY>
31.220681309216832

> <JCHEM_BIOAVAILABILITY>
1

> <JCHEM_DONOR_COUNT>
1

> <JCHEM_FORMAL_CHARGE>
0

> <JCHEM_GHOSE_FILTER>
1

> <JCHEM_IUPAC>
7-chloro-2-(methylamino)-5-phenyl-3H-1,4-benzodiazepin-4-ium-4-olate

> <ALOGPS_LOGP>
2.01

> <JCHEM_LOGP>
0.18956609050315829

> <ALOGPS_LOGS>
-4.18

> <JCHEM_MDDR_LIKE_RULE>
0

> <JCHEM_NUMBER_OF_RINGS>
3

> <JCHEM_PHYSIOLOGICAL_CHARGE>
1

> <JCHEM_PKA>
16.431798916705144

> <JCHEM_PKA_STRONGEST_ACIDIC>
-2.687983529116578

> <JCHEM_PKA_STRONGEST_BASIC>
7.061261704810951

> <JCHEM_POLAR_SURFACE_AREA>
50.46

> <JCHEM_REFRACTIVITY>
87.3403

> <JCHEM_ROTATABLE_BOND_COUNT>
1

> <JCHEM_RULE_OF_FIVE>
1

> <ALOGPS_SOLUBILITY>
1.99e-02 g/l

> <JCHEM_TRADITIONAL_IUPAC>
chlordiazepoxide

> <JCHEM_VEBER_RULE>
0

> <DRUGBANK_ID>
DB00475

> <SECONDARY_ACCESSION_NUMBERS>
APRD00682

> <DRUG_GROUPS>
approved; illicit; investigational

> <GENERIC_NAME>
Chlordiazepoxide

> <SYNONYMS>
7-chloro-2-methylamino-5-phenyl-3H-1,4-benzodiazepin-4-oxide; CDP; Chloradiazepoxide; Chlordiazepoxide; Chlordiazepoxidum; Clopoxide; Clordiazepóxido; Methaminodiazepoxide

> <PRODUCTS>
CHLORDIAZEPOXIDE HYDROCHLORIDE and CLIDINIUM BROMIDE; Chlorax; Chlordiazepoxide; Chlordiazepoxide Cap 10mg; Chlordiazepoxide Cap 5mg; Chlordiazepoxide Clidinium; Chlordiazepoxide HCl; Chlordiazepoxide Hydrochloride; Chlordiazepoxide Hydrochloride And Clidinium Bromide; Chlordiazepoxide Hydrochloride and Clidinium Bromide; Chlordiazepoxide Hydrochloride/Clidinium Bromide; Chlordiazepoxide and Amitriptyline HCl; Chlordiazepoxide and Amitriptyline Hydrochloride; Chlordiazepoxyde 25 Cap; Chlordiazepoxyde Cap 10mg; Chlordiazepoxyde HCl Cap 25mg; Corax Cap 10mg; Corax Cap 25mg; Corax Cap 5mg; Corium Cap; Librax; Librium; Limbitrol; Limbitrol DS; Medilium Cap 10 10mg; Medilium Cap 5mg; Not applicable; Novo-poxide 10mg; Novo-poxide 25mg; Novo-poxide 5mg; Nu-chlorax Capsules USP; Pro Chlorax

> <INTERNATIONAL_BRANDS>
Angirex; Elenium; Helogaphen; Klopoxid; Libritabs; Multum; Napoton; Radepur; Risolid; Silibrin; Sonimen; Tropium

> <SALTS>
Chlordiazepoxide hydrochloride

$$$$
497
  Mrv1909 03102001322D          

 23 27  0  0  1  0            999 V2000
   -0.7022   -0.0077    0.0000 C   0  0  0  0  0  0  0  0  0  0  0  0
   -1.4167    0.4048    0.0000 C   0  0  0  0  0  0  0  0  0  0  0  0
    0.0122    0.4048    0.0000 C   0  0  0  0  0  0  0  0  0  0  0  0
   -1.4167    1.2298    0.0000 C   0  0  0  0  0  0  0  0  0  0  0  0
    0.0122    1.2298    0.0000 C   0  0  0  0  0  0  0  0  0  0  0  0
   -0.7022    1.6423    0.0000 C   0  0  0  0  0  0  0  0  0  0  0  0
   -0.6992   -0.8291    0.0000 C   0  0  2  0  0  0  0  0  0  0  0  0
    0.0087   -1.2460    0.0000 C   0  0  2  0  0  0  0  0  0  0  0  0
   -1.4150   -1.2340    0.0000 C   0  0  1  0  0  0  0  0  0  0  0  0
    0.7246   -0.8337    0.0000 C   0  0  1  0  0  0  0  0  0  0  0  0
    0.0045   -2.0636    0.0000 C   0  0  0  0  0  0  0  0  0  0  0  0
   -2.2394   -0.3573    0.0000 O   0  0  0  0  0  0  0  0  0  0  0  0
   -1.4229   -2.0518    0.0000 C   0  0  0  0  0  0  0  0  0  0  0  0
    0.7288   -0.0123    0.0000 C   0  0  0  0  0  0  0  0  0  0  0  0
    1.4397   -1.2543    0.0000 N   0  0  0  0  0  0  0  0  0  0  0  0
   -0.7150   -2.4719    0.0000 C   0  0  0  0  0  0  0  0  0  0  0  0
   -2.1365   -2.4660    0.0000 O   0  0  0  0  0  0  0  0  0  0  0  0
   -2.1285    1.6470    0.0000 O   0  0  0  0  0  0  0  0  0  0  0  0
    2.2394   -1.0357    0.0000 C   0  0  0  0  0  0  0  0  0  0  0  0
    0.6791   -1.7267    0.0000 O   0  0  0  0  0  0  0  0  0  0  0  0
    1.4376   -0.4168    0.0000 C   0  0  0  0  0  0  0  0  0  0  0  0
    0.0161   -0.4157    0.0000 C   0  0  0  0  0  0  0  0  0  0  0  0
   -2.1231    2.4719    0.0000 C   0  0  0  0  0  0  0  0  0  0  0  0
  7  1  1  0  0  0  0
  1  2  1  0  0  0  0
  2 12  1  0  0  0  0
  1  3  2  0  0  0  0
  3 14  1  0  0  0  0
  2  4  2  0  0  0  0
  4 18  1  0  0  0  0
  3  5  1  0  0  0  0
  4  6  1  0  0  0  0
  5  6  2  0  0  0  0
  7  8  1  0  0  0  0
  7  9  1  0  0  0  0
  7 22  1  1  0  0  0
  8 10  1  0  0  0  0
  8 11  1  0  0  0  0
  8 20  1  1  0  0  0
  9 12  1  6  0  0  0
  9 13  1  0  0  0  0
 10 15  1  1  0  0  0
 10 14  1  0  0  0  0
 11 16  1  0  0  0  0
 13 17  2  0  0  0  0
 13 16  1  0  0  0  0
 15 19  1  0  0  0  0
 21 15  1  0  0  0  0
 22 21  1  0  0  0  0
 18 23  1  0  0  0  0
M  END
> <DATABASE_ID>
DB00497

> <DATABASE_NAME>
drugbank

> <SMILES>
COC1=C2O[C@H]3C(=O)CC[C@@]4(O)[C@H]5CC(C=C1)=C2[C@@]34CCN5C

> <INCHI_IDENTIFIER>
InChI=1S/C18H21NO4/c1-19-8-7-17-14-10-3-4-12(22-2)15(14)23-16(17)11(20)5-6-18(17,21)13(19)9-10/h3-4,13,16,21H,5-9H2,1-2H3/t13-,16+,17+,18-/m1/s1

> <INCHI_KEY>
BRUQQQPBMZOVGD-XFKAJCMBSA-N

> <FORMULA>
C18H21NO4

> <MOLECULAR_WEIGHT>
315.3636

> <EXACT_MASS>
315.147058165

> <JCHEM_ACCEPTOR_COUNT>
5

> <JCHEM_ATOM_COUNT>
44

> <JCHEM_AVERAGE_NEUTRAL_MICROSPECIES_CHARGE>
0.9833033402787329

> <JCHEM_AVERAGE_POLARIZABILITY>
32.79396796732389

> <JCHEM_BIOAVAILABILITY>
1

> <JCHEM_DONOR_COUNT>
1

> <JCHEM_FORMAL_CHARGE>
0

> <JCHEM_GHOSE_FILTER>
1

> <JCHEM_IUPAC>
(1S,5R,13R,17S)-17-hydroxy-10-methoxy-4-methyl-12-oxa-4-azapentacyclo[9.6.1.0^{1,13}.0^{5,17}.0^{7,18}]octadeca-7(18),8,10-trien-14-one

> <ALOGPS_LOGP>
1.04

> <JCHEM_LOGP>
1.0348653926666662

> <ALOGPS_LOGS>
-1.75

> <JCHEM_MDDR_LIKE_RULE>
0

> <JCHEM_NEUTRAL_CHARGE>
1

> <JCHEM_NUMBER_OF_RINGS>
5

> <JCHEM_PHYSIOLOGICAL_CHARGE>
1

> <JCHEM_PKA>
18.98373693541559

> <JCHEM_PKA_STRONGEST_ACIDIC>
13.56851865805893

> <JCHEM_PKA_STRONGEST_BASIC>
8.770065063573933

> <JCHEM_POLAR_SURFACE_AREA>
59.00000000000001

> <JCHEM_REFRACTIVITY>
84.04180000000002

> <JCHEM_ROTATABLE_BOND_COUNT>
1

> <JCHEM_RULE_OF_FIVE>
1

> <ALOGPS_SOLUBILITY>
5.59e+00 g/l

> <JCHEM_TRADITIONAL_IUPAC>
ENTA

> <JCHEM_VEBER_RULE>
0

> <DRUGBANK_ID>
DB00497

> <SECONDARY_ACCESSION_NUMBERS>
APRD00387

> <DRUG_GROUPS>
approved; illicit; investigational

> <GENERIC_NAME>
Oxycodone

> <SYNONYMS>
(-)-14-Hydroxydihydrocodeinone; 4,5-Epoxy-14-hydroxy-3-methoxy-17-methylmorphinan-6-one; 4,5alpha-Epoxy-14-hydroxy-3-methoxy-17-methylmorphinan-6-one; 4,5α-Epoxy-14-hydroxy-3-methoxy-17-methylmorphinan-6-one; Dihydro-14-hydroxycodeinone; Dihydrohydroxycodeinone; Dihydroxycodeinone; Oxicodona; Oxycodone; Oxycodonum

> <PRODUCTS>
Act Oxycodone CR; Apo-oxycodone CR; Apo-oxycodone/acet; Combunox; Endocet; Endodan; Magnacet; Nalocet; Ntp-oxycodone Acetaminophen; Nu-oxycodone/acet; OXYCODONE HCl; Oxaydo; Oxecta; Oxy.ir; OxyContin; Oxycodone; Oxycodone Apap; Oxycodone HCl; Oxycodone HCl Controlled-Release; Oxycodone Hydchloride; Oxycodone Hydrochloride; Oxycodone Hydrochloride Controlled-release; Oxycodone Hydrochloride Immediate-release; Oxycodone Hydrochloride Oral Solution; Oxycodone Hydrochloride and Acetaminophen; Oxycodone Hydrochloride and Aspirin; Oxycodone Hydrochloride and Ibuprofen; Oxycodone and Acetaminophen; Oxycodone and Aspirin; Oxycodone hydrochloride; Oxycodone hydrochloride and Ibuprofen; Oxycodone-acet; Oxycodone/APAP; Oxycodone/acet; Oxycodone/acetaminophen; Oxycodone/apap; Oxycontin; Oxycontin 10mg; Oxycontin 20mg; Oxycontin 40mg; Oxycontin 5mg; Oxycontin 80mg; Oxyneo; PMS-oxycodone; PMS-oxycodone - Acetaminophen; PMS-oxycodone CR; Percocet; Percocet-demi; Percodan; Percodan-demi; Primlev; Prolate; Ran-oxycodone CR; Riva-oxycodone CR; Rivacocet; Rivacodan; Roxicet; Roxicet 5/500; Roxicet Tab; Roxicodone; Roxybond; Sandoz Oxycodone CR; Sandoz Oxycodone/acetaminophen; Supeudol; Supeudol 10; Supeudol 20; Supeudol 5; Targin; Targiniq ER; Teva-oxycocet; Teva-oxycodan; Teva-oxycodone CR; Troxyca ER; Tylox; Xartemis XR; Xolox; Xtampza ER

> <INTERNATIONAL_BRANDS>
Oxanest; OxyIR

> <SALTS>
Oxycodone hydrochloride; Oxycodone terephthalate

$$$$

  Mrv1909 06282015402D          

 16 16  0  0  0  0            999 V2000
   -1.7834   -0.8248    0.0000 C   0  0  0  0  0  0  0  0  0  0  0  0
   -1.0690   -0.4123    0.0000 C   0  0  0  0  0  0  0  0  0  0  0  0
   -0.3545   -0.8248    0.0000 C   0  0  0  0  0  0  0  0  0  0  0  0
    0.3598   -0.4123    0.0000 C   0  0  0  0  0  0  0  0  0  0  0  0
   -1.7834   -1.6500    0.0000 F   0  0  0  0  0  0  0  0  0  0  0  0
   -2.4980   -0.4123    0.0000 F   0  0  0  0  0  0  0  0  0  0  0  0
    1.0743   -0.8248    0.0000 C   0  0  0  0  0  0  0  0  0  0  0  0
    1.7888    0.4125    0.0000 N   0  0  0  0  0  0  0  0  0  0  0  0
   -1.0690    0.4125    0.0000 C   0  0  0  0  0  0  0  0  0  0  0  0
    1.7888   -0.4123    0.0000 C   0  0  0  0  0  0  0  0  0  0  0  0
   -0.3545    0.8250    0.0000 C   0  0  0  0  0  0  0  0  0  0  0  0
    0.3598    0.4125    0.0000 C   0  0  0  0  0  0  0  0  0  0  0  0
    2.5034   -0.8248    0.0000 C   0  0  0  0  0  0  0  0  0  0  0  0
   -2.5034   -1.2442    0.0000 F   0  0  0  0  0  0  0  0  0  0  0  0
    1.0743    0.8250    0.0000 C   0  0  0  0  0  0  0  0  0  0  0  0
    1.0743    1.6500    0.0000 C   0  0  0  0  0  0  0  0  0  0  0  0
  2  1  1  0  0  0  0
  5  1  1  0  0  0  0
  6  1  1  0  0  0  0
  3  2  2  0  0  0  0
  9  2  1  0  0  0  0
  4  3  1  0  0  0  0
  7  4  1  0  0  0  0
 12  4  2  0  0  0  0
 10  7  1  0  0  0  0
 10  8  1  0  0  0  0
 11  9  2  0  0  0  0
 13 10  1  0  0  0  0
 12 11  1  0  0  0  0
  1 14  1  0  0  0  0
  8 15  1  0  0  0  0
 15 16  1  0  0  0  0
M  END
> <DATABASE_ID>
DB00574

> <DATABASE_NAME>
drugbank

> <SMILES>
CCNC(C)CC1=CC=CC(=C1)C(F)(F)F

> <INCHI_IDENTIFIER>
InChI=1S/C12H16F3N/c1-3-16-9(2)7-10-5-4-6-11(8-10)12(13,14)15/h4-6,8-9,16H,3,7H2,1-2H3

> <INCHI_KEY>
DBGIVFWFUFKIQN-UHFFFAOYSA-N

> <FORMULA>
C12H16F3N

> <MOLECULAR_WEIGHT>
231.2573

> <EXACT_MASS>
231.123484132

> <JCHEM_ACCEPTOR_COUNT>
1

> <JCHEM_ATOM_COUNT>
32

> <JCHEM_AVERAGE_NEUTRAL_MICROSPECIES_CHARGE>
0.9999999999391044

> <JCHEM_AVERAGE_POLARIZABILITY>
22.685157655315663

> <JCHEM_BIOAVAILABILITY>
1

> <JCHEM_DONOR_COUNT>
1

> <JCHEM_FORMAL_CHARGE>
0

> <JCHEM_GHOSE_FILTER>
1

> <JCHEM_IUPAC>
ethyl({1-[3-(trifluoromethyl)phenyl]propan-2-yl})amine

> <ALOGPS_LOGP>
3.30

> <JCHEM_LOGP>
3.4714873116666665

> <ALOGPS_LOGS>
-4.03

> <JCHEM_MDDR_LIKE_RULE>
0

> <JCHEM_NEUTRAL_CHARGE>
1

> <JCHEM_NUMBER_OF_RINGS>
1

> <JCHEM_PHYSIOLOGICAL_CHARGE>
1

> <JCHEM_PKA_STRONGEST_BASIC>
10.215413995825989

> <JCHEM_POLAR_SURFACE_AREA>
12.03

> <JCHEM_REFRACTIVITY>
59.2021

> <JCHEM_ROTATABLE_BOND_COUNT>
5

> <JCHEM_RULE_OF_FIVE>
1

> <ALOGPS_SOLUBILITY>
2.15e-02 g/l

> <JCHEM_TRADITIONAL_IUPAC>
fenfluramine

> <JCHEM_VEBER_RULE>
1

> <DRUGBANK_ID>
DB00574

> <SECONDARY_ACCESSION_NUMBERS>
APRD00319

> <DRUG_GROUPS>
approved; illicit; investigational; withdrawn

> <GENERIC_NAME>
Fenfluramine

> <SYNONYMS>
(±)-fenfluramine; 1-(m-trifluoromethyl-phenyl)-2-ethylaminopropane; DL-Fenfluramine; Fenfluramina; Fenfluramine; Fenfluraminum

> <PRODUCTS>
Fintepla; Pondimin Tab 20mg

> <INTERNATIONAL_BRANDS>
Adifax; Obedrex; Ponderax; Ponderax PA; Pondimin; Rotondin

> <SALTS>
Fenfluramine hydrochloride

$$$$
611
  Mrv0541 02231214482D          

 25 29  0  0  1  0            999 V2000
    6.4350   -0.2341    0.0000 O   0  0  0  0  0  0  0  0  0  0  0  0
    2.0939   -1.0789    0.0000 O   0  0  0  0  0  0  0  0  0  0  0  0
    5.3724    0.1709    0.0000 N   0  0  0  0  0  0  0  0  0  0  0  0
    5.0062   -1.0591    0.0000 C   0  0  2  0  0  0  0  0  0  0  0  0
    5.7205   -0.6466    0.0000 C   0  0  1  0  0  0  0  0  0  0  0  0
    5.7205    0.1784    0.0000 C   0  0  1  0  0  0  0  0  0  0  0  0
    4.8386   -0.7539    0.0000 C   0  0  0  0  0  0  0  0  0  0  0  0
    4.9929   -1.9183    0.0000 C   0  0  0  0  0  0  0  0  0  0  0  0
    6.4713   -1.0647    0.0000 C   0  0  0  0  0  0  0  0  0  0  0  0
    4.2916   -0.6466    0.0000 C   0  0  0  0  0  0  0  0  0  0  0  0
    4.7695   -0.0975    0.0000 C   0  0  0  0  0  0  0  0  0  0  0  0
    5.0062    0.5909    0.0000 C   0  0  0  0  0  0  0  0  0  0  0  0
    5.7336   -2.3536    0.0000 C   0  0  0  0  0  0  0  0  0  0  0  0
    6.4779   -1.9240    0.0000 C   0  0  0  0  0  0  0  0  0  0  0  0
    4.2916    0.1784    0.0000 C   0  0  0  0  0  0  0  0  0  0  0  0
    5.5440    0.9778    0.0000 C   0  0  0  0  0  0  0  0  0  0  0  0
    4.9309    1.5298    0.0000 C   0  0  0  0  0  0  0  0  0  0  0  0
    4.1071    1.4867    0.0000 C   0  0  0  0  0  0  0  0  0  0  0  0
    4.8878    2.3536    0.0000 C   0  0  0  0  0  0  0  0  0  0  0  0
    3.5542   -1.0876    0.0000 C   0  0  0  0  0  0  0  0  0  0  0  0
    4.0639    2.3104    0.0000 C   0  0  0  0  0  0  0  0  0  0  0  0
    3.5542    0.6195    0.0000 C   0  0  0  0  0  0  0  0  0  0  0  0
    2.8067   -0.6638    0.0000 C   0  0  0  0  0  0  0  0  0  0  0  0
    2.8067    0.1955    0.0000 C   0  0  0  0  0  0  0  0  0  0  0  0
    6.0505    0.7498    0.0000 H   0  0  0  0  0  0  0  0  0  0  0  0
  5  1  1  1  0  0  0
  2 23  1  0  0  0  0
  3  6  1  0  0  0  0
  3 11  1  0  0  0  0
  3 16  1  0  0  0  0
  4  5  1  0  0  0  0
  4  7  1  0  0  0  0
  4  8  1  6  0  0  0
  4 10  1  0  0  0  0
  5  6  1  0  0  0  0
  5  9  1  0  0  0  0
  6 12  1  0  0  0  0
  6 25  1  6  0  0  0
  7 11  1  0  0  0  0
  8 13  1  0  0  0  0
  9 14  1  0  0  0  0
 10 15  2  0  0  0  0
 10 20  1  0  0  0  0
 12 15  1  0  0  0  0
 13 14  1  0  0  0  0
 15 22  1  0  0  0  0
 16 17  1  0  0  0  0
 17 18  1  0  0  0  0
 17 19  1  0  0  0  0
 18 21  1  0  0  0  0
 19 21  1  0  0  0  0
 20 23  2  0  0  0  0
 22 24  2  0  0  0  0
 23 24  1  0  0  0  0
M  END
> <DATABASE_ID>
DB00611

> <DATABASE_NAME>
drugbank

> <SMILES>
[H][C@@]12CC3=C(C=C(O)C=C3)[C@]3(CCCC[C@@]13O)CCN2CC1CCC1

> <INCHI_IDENTIFIER>
InChI=1S/C21H29NO2/c23-17-7-6-16-12-19-21(24)9-2-1-8-20(21,18(16)13-17)10-11-22(19)14-15-4-3-5-15/h6-7,13,15,19,23-24H,1-5,8-12,14H2/t19-,20+,21+/m0/s1

> <INCHI_KEY>
IFKLAQQSCNILHL-PWRODBHTSA-N

> <FORMULA>
C21H29NO2

> <MOLECULAR_WEIGHT>
327.4605

> <EXACT_MASS>
327.219829177

> <JCHEM_ACCEPTOR_COUNT>
3

> <JCHEM_AVERAGE_POLARIZABILITY>
37.93936033693934

> <JCHEM_BIOAVAILABILITY>
1

> <JCHEM_DONOR_COUNT>
2

> <JCHEM_FORMAL_CHARGE>
0

> <JCHEM_GHOSE_FILTER>
1

> <JCHEM_IUPAC>
(1S,9R,10S)-17-(cyclobutylmethyl)-17-azatetracyclo[7.5.3.0¹,¹⁰.0²,⁷]heptadeca-2(7),3,5-triene-4,10-diol

> <ALOGPS_LOGP>
3.65

> <JCHEM_LOGP>
2.8903292922420443

> <ALOGPS_LOGS>
-3.31

> <JCHEM_MDDR_LIKE_RULE>
0

> <JCHEM_NUMBER_OF_RINGS>
5

> <JCHEM_PHYSIOLOGICAL_CHARGE>
1

> <JCHEM_PKA>
13.72921326420759

> <JCHEM_PKA_STRONGEST_ACIDIC>
9.864342496681376

> <JCHEM_PKA_STRONGEST_BASIC>
10.70358494827157

> <JCHEM_POLAR_SURFACE_AREA>
43.7

> <JCHEM_REFRACTIVITY>
95.921

> <JCHEM_ROTATABLE_BOND_COUNT>
2

> <JCHEM_RULE_OF_FIVE>
1

> <ALOGPS_SOLUBILITY>
1.60e-01 g/l

> <JCHEM_TRADITIONAL_IUPAC>
butorphanol

> <JCHEM_VEBER_RULE>
0

> <DRUGBANK_ID>
DB00611

> <SECONDARY_ACCESSION_NUMBERS>
APRD00835

> <DRUG_GROUPS>
approved; illicit; vet_approved

> <GENERIC_NAME>
Butorphanol

> <SYNONYMS>
(−)-17-(cyclobutylmethyl)morphinan-3,14-diol; (−)-butorphanol; (−)-N-cyclobutylmethyl-3,14-dihydroxymorphinan; Butorfanol; Butorphanol; Butorphanolum

> <PRODUCTS>
Butorphanol Nasal Spray; Butorphanol Tartrate; Butorphanol tartrate; PMS-butorphanol; Stadol; Stadol NS; Stadol NS - 10mg/ml Aem-liq

> <INTERNATIONAL_BRANDS>
Butaro; Butrum

> <SALTS>
Butorphanol tartrate

$$$$
628
  Mrv0541 02231214492D          

 22 24  0  0  1  0            999 V2000
    2.5467   -2.7000    0.0000 Cl  0  0  0  0  0  0  0  0  0  0  0  0
    2.3403    2.0183    0.0000 O   0  0  0  0  0  0  0  0  0  0  0  0
    4.7038    2.0801    0.0000 O   0  0  0  0  0  0  0  0  0  0  0  0
    3.4164    2.7000    0.0000 O   0  0  0  0  0  0  0  0  0  0  0  0
    2.1838    0.6300    0.0000 N   0  0  0  0  0  0  0  0  0  0  0  0
    4.0375    0.6300    0.0000 N   0  0  0  0  0  0  0  0  0  0  0  0
    3.1106   -0.5322    0.0000 C   0  0  0  0  0  0  0  0  0  0  0  0
    3.8540   -0.1742    0.0000 C   0  0  0  0  0  0  0  0  0  0  0  0
    2.3674   -0.1742    0.0000 C   0  0  0  0  0  0  0  0  0  0  0  0
    3.5231    1.2751    0.0000 C   0  0  0  0  0  0  0  0  0  0  0  0
    4.4989   -0.6886    0.0000 C   0  0  0  0  0  0  0  0  0  0  0  0
    2.6981    1.2751    0.0000 C   0  0  0  0  0  0  0  0  0  0  0  0
    3.1881   -1.3880    0.0000 C   0  0  0  0  0  0  0  0  0  0  0  0
    1.6500   -0.6473    0.0000 C   0  0  0  0  0  0  0  0  0  0  0  0
    2.4818   -1.8776    0.0000 C   0  0  0  0  0  0  0  0  0  0  0  0
    1.7076   -1.5047    0.0000 C   0  0  0  0  0  0  0  0  0  0  0  0
    5.2669   -0.3872    0.0000 C   0  0  0  0  0  0  0  0  0  0  0  0
    4.3760   -1.5044    0.0000 C   0  0  0  0  0  0  0  0  0  0  0  0
    3.8811    2.0183    0.0000 C   0  0  0  0  0  0  0  0  0  0  0  0
    5.9120   -0.9016    0.0000 C   0  0  0  0  0  0  0  0  0  0  0  0
    5.0210   -2.0188    0.0000 C   0  0  0  0  0  0  0  0  0  0  0  0
    5.7890   -1.7174    0.0000 C   0  0  0  0  0  0  0  0  0  0  0  0
  1 15  1  0  0  0  0
  2 12  2  0  0  0  0
  3 19  1  0  0  0  0
  4 19  2  0  0  0  0
  5  9  1  0  0  0  0
  5 12  1  0  0  0  0
  6  8  2  0  0  0  0
  6 10  1  0  0  0  0
  7  8  1  0  0  0  0
  7  9  2  0  0  0  0
  7 13  1  0  0  0  0
  8 11  1  0  0  0  0
  9 14  1  0  0  0  0
 10 12  1  0  0  0  0
 10 19  1  0  0  0  0
 11 17  2  0  0  0  0
 11 18  1  0  0  0  0
 13 15  2  0  0  0  0
 14 16  2  0  0  0  0
 15 16  1  0  0  0  0
 17 20  1  0  0  0  0
 18 21  2  0  0  0  0
 20 22  2  0  0  0  0
 21 22  1  0  0  0  0
M  END
> <DATABASE_ID>
DB00628

> <DATABASE_NAME>
drugbank

> <SMILES>
OC(=O)C1N=C(C2=CC=CC=C2)C2=C(NC1=O)C=CC(Cl)=C2

> <INCHI_IDENTIFIER>
InChI=1S/C16H11ClN2O3/c17-10-6-7-12-11(8-10)13(9-4-2-1-3-5-9)19-14(16(21)22)15(20)18-12/h1-8,14H,(H,18,20)(H,21,22)

> <INCHI_KEY>
XDDJGVMJFWAHJX-UHFFFAOYSA-N

> <FORMULA>
C16H11ClN2O3

> <MOLECULAR_WEIGHT>
314.723

> <EXACT_MASS>
314.045819935

> <JCHEM_ACCEPTOR_COUNT>
4

> <JCHEM_AVERAGE_POLARIZABILITY>
30.625736988123027

> <JCHEM_BIOAVAILABILITY>
1

> <JCHEM_DONOR_COUNT>
2

> <JCHEM_FORMAL_CHARGE>
0

> <JCHEM_GHOSE_FILTER>
1

> <JCHEM_IUPAC>
7-chloro-2-oxo-5-phenyl-2,3-dihydro-1H-1,4-benzodiazepine-3-carboxylic acid

> <ALOGPS_LOGP>
2.68

> <JCHEM_LOGP>
3.206338529999999

> <ALOGPS_LOGS>
-4.10

> <JCHEM_MDDR_LIKE_RULE>
0

> <JCHEM_NUMBER_OF_RINGS>
3

> <JCHEM_PHYSIOLOGICAL_CHARGE>
-1

> <JCHEM_PKA>
12.233953140202436

> <JCHEM_PKA_STRONGEST_ACIDIC>
3.3205174094454324

> <JCHEM_PKA_STRONGEST_BASIC>
-0.6426618306823179

> <JCHEM_POLAR_SURFACE_AREA>
78.75999999999999

> <JCHEM_REFRACTIVITY>
82.67610000000002

> <JCHEM_ROTATABLE_BOND_COUNT>
2

> <JCHEM_RULE_OF_FIVE>
1

> <ALOGPS_SOLUBILITY>
2.48e-02 g/l

> <JCHEM_TRADITIONAL_IUPAC>
clorazepate

> <JCHEM_VEBER_RULE>
0

> <DRUGBANK_ID>
DB00628

> <SECONDARY_ACCESSION_NUMBERS>
APRD00881

> <DRUG_GROUPS>
approved; illicit

> <GENERIC_NAME>
Clorazepic acid

> <SYNONYMS>
7-chloro-2,3-dihydro-2,2-dihydroxy-5-phenyl-1H-1,4-benzodiazepine-3-carboxylic acid; Chlorazepate; Clorazepate; Clorazepic acid

> <PRODUCTS>
Clorazepate; Clorazepate Dipotassium; Clorazepate Dipotassium T-Tab; Clorazepate dipotassium; Novo-clopate Cap 15mg; Novo-clopate Cap 3.75mg; Novo-clopate Cap 7.5mg; Tranxene Cap 15mg; Tranxene Cap 3.75mg; Tranxene Cap 7.5mg; Tranxene T-Tab

> <INTERNATIONAL_BRANDS>
Anksen; Calner; Cloranxen; Clorazepatum; Clozene; Dipot; Flulium; Gen-xene; Justum; Manotran; Medipax; Mendon; Polizep; Tencilan; Trancap; Transene; Tranxen; Tranxène; Tranxene; Tranxilene; Tranxilium; Zetran-5

> <SALTS>
Clorazepate dipotassium

$$$$

  Mrv0541 01151409102D          

 25 26  0  0  0  0            999 V2000
   -1.6205    3.0938    0.0000 C   0  0  0  0  0  0  0  0  0  0  0  0
   -2.3350    2.6812    0.0000 C   0  0  0  0  0  0  0  0  0  0  0  0
   -2.3350    1.8562    0.0000 C   0  0  0  0  0  0  0  0  0  0  0  0
   -1.6205    1.4437    0.0000 C   0  0  0  0  0  0  0  0  0  0  0  0
   -0.9061    1.8562    0.0000 C   0  0  0  0  0  0  0  0  0  0  0  0
   -0.9061    2.6812    0.0000 C   0  0  0  0  0  0  0  0  0  0  0  0
   -1.6205    0.6187    0.0000 C   0  0  2  0  0  0  0  0  0  0  0  0
   -2.3350    0.2062    0.0000 C   0  0  0  0  0  0  0  0  0  0  0  0
   -3.0495    0.6187    0.0000 C   0  0  0  0  0  0  0  0  0  0  0  0
   -3.7639    1.8563    0.0000 C   0  0  0  0  0  0  0  0  0  0  0  0
   -4.4784    1.4438    0.0000 C   0  0  0  0  0  0  0  0  0  0  0  0
   -4.4784    0.6187    0.0000 C   0  0  0  0  0  0  0  0  0  0  0  0
   -3.7639    0.2062    0.0000 C   0  0  0  0  0  0  0  0  0  0  0  0
   -3.0495    1.4438    0.0000 C   0  0  0  0  0  0  0  0  0  0  0  0
   -1.6205   -0.2063    0.0000 C   0  0  1  0  0  0  0  0  0  0  0  0
   -0.9061    0.2062    0.0000 O   0  0  0  0  0  0  0  0  0  0  0  0
   -0.1915    0.6187    0.0000 C   0  0  0  0  0  0  0  0  0  0  0  0
    0.5229    0.2062    0.0000 C   0  0  0  0  0  0  0  0  0  0  0  0
    1.2373    0.6187    0.0000 C   0  0  0  0  0  0  0  0  0  0  0  0
   -0.9061   -0.6188    0.0000 C   0  0  0  0  0  0  0  0  0  0  0  0
   -0.9061   -1.4438    0.0000 N   0  0  0  0  0  0  0  0  0  0  0  0
   -1.6205   -1.8563    0.0000 C   0  0  0  0  0  0  0  0  0  0  0  0
   -0.1915   -1.8563    0.0000 C   0  0  0  0  0  0  0  0  0  0  0  0
   -2.3350   -0.6188    0.0000 C   0  0  0  0  0  0  0  0  0  0  0  0
   -0.1915    1.4437    0.0000 O   0  0  0  0  0  0  0  0  0  0  0  0
  1  2  2  0  0  0  0
  1  6  1  0  0  0  0
  2  3  1  0  0  0  0
  3  4  2  0  0  0  0
  4  5  1  0  0  0  0
  5  6  2  0  0  0  0
  7  4  1  1  0  0  0
  7  8  1  6  0  0  0
  8  9  1  0  0  0  0
 13  9  2  0  0  0  0
  9 14  1  0  0  0  0
 10 11  1  0  0  0  0
 10 14  2  0  0  0  0
 11 12  2  0  0  0  0
 12 13  1  0  0  0  0
  7 15  1  0  0  0  0
  7 16  1  0  0  0  0
 16 17  1  0  0  0  0
 17 18  1  0  0  0  0
 18 19  1  0  0  0  0
 15 20  1  0  0  0  0
 20 21  1  0  0  0  0
 21 22  1  0  0  0  0
 21 23  1  0  0  0  0
 15 24  1  1  0  0  0
 17 25  2  0  0  0  0
M  END
> <DATABASE_ID>
DB00647

> <DATABASE_NAME>
drugbank

> <SMILES>
CCC(=O)O[C@@](CC1=CC=CC=C1)([C@H](C)CN(C)C)C1=CC=CC=C1

> <INCHI_IDENTIFIER>
InChI=1S/C22H29NO2/c1-5-21(24)25-22(18(2)17-23(3)4,20-14-10-7-11-15-20)16-19-12-8-6-9-13-19/h6-15,18H,5,16-17H2,1-4H3/t18-,22+/m1/s1

> <INCHI_KEY>
XLMALTXPSGQGBX-GCJKJVERSA-N

> <FORMULA>
C22H29NO2

> <MOLECULAR_WEIGHT>
339.4712

> <EXACT_MASS>
339.219829177

> <JCHEM_ACCEPTOR_COUNT>
2

> <JCHEM_AVERAGE_POLARIZABILITY>
38.858232426070884

> <JCHEM_BIOAVAILABILITY>
1

> <JCHEM_DONOR_COUNT>
0

> <JCHEM_FORMAL_CHARGE>
0

> <JCHEM_GHOSE_FILTER>
1

> <JCHEM_IUPAC>
(2S,3R)-4-(dimethylamino)-3-methyl-1,2-diphenylbutan-2-yl propanoate

> <ALOGPS_LOGP>
4.06

> <JCHEM_LOGP>
4.902155232666666

> <ALOGPS_LOGS>
-4.91

> <JCHEM_MDDR_LIKE_RULE>
0

> <JCHEM_NUMBER_OF_RINGS>
2

> <JCHEM_PHYSIOLOGICAL_CHARGE>
1

> <JCHEM_PKA_STRONGEST_BASIC>
9.517055044851146

> <JCHEM_POLAR_SURFACE_AREA>
29.54

> <JCHEM_REFRACTIVITY>
102.88059999999999

> <JCHEM_ROTATABLE_BOND_COUNT>
9

> <JCHEM_RULE_OF_FIVE>
1

> <ALOGPS_SOLUBILITY>
4.19e-03 g/l

> <JCHEM_TRADITIONAL_IUPAC>
propoxyphene

> <JCHEM_VEBER_RULE>
1

> <DRUGBANK_ID>
DB00647

> <SECONDARY_ACCESSION_NUMBERS>
APRD00548

> <DRUG_GROUPS>
approved; illicit; investigational; withdrawn

> <GENERIC_NAME>
Dextropropoxyphene

> <SYNONYMS>
d-Propoxyphene; Destropropossifene; Dextropropoxifeno; Dextropropoxyphen; Dextropropoxyphène; Dextropropoxyphene; Dextropropoxyphenum; Dextroproxifeno; Propoxyphene

> <PRODUCTS>
642 Tab; 692 Tab; 692 Tablet; Balacet 325; Darvocet A500; Darvocet N100; Darvocet-N 100; Darvocet-N 50; Darvon; Darvon N Compound Pulvule 405; Darvon-N; Novo-propoxyn Cap 65mg; Novo-propoxyn Compound Cap; Propoxyphene; Propoxyphene Hydrochloride; Propoxyphene Hydrochloride and Acetaminophen; Propoxyphene Napsylate and Acetaminophen; Propoxyphene Napsylate and Acetominophen; Propoxyphene and Acetaminophen; Therapoxyphene 650

> <INTERNATIONAL_BRANDS>
Abalgin; Dacoton; Deprancol; Depronal; Dolene; Doloxene

> <SALTS>
Dextropropoxyphene hydrochloride; Dextropropoxyphene napsylate

$$$$
683
  Mrv0541 02231214552D          

 23 26  0  0  0  0            999 V2000
    1.6500   -0.2321    0.0000 Cl  0  0  0  0  0  0  0  0  0  0  0  0
    5.3329    1.8438    0.0000 F   0  0  0  0  0  0  0  0  0  0  0  0
    4.8159   -1.3269    0.0000 N   0  0  0  0  0  0  0  0  0  0  0  0
    5.2284    0.4805    0.0000 N   0  0  0  0  0  0  0  0  0  0  0  0
    5.7352   -2.2849    0.0000 N   0  0  0  0  0  0  0  0  0  0  0  0
    4.0726   -0.9689    0.0000 C   0  0  0  0  0  0  0  0  0  0  0  0
    5.5592   -0.9689    0.0000 C   0  0  0  0  0  0  0  0  0  0  0  0
    3.8890   -0.1645    0.0000 C   0  0  0  0  0  0  0  0  0  0  0  0
    5.7428   -0.1645    0.0000 C   0  0  0  0  0  0  0  0  0  0  0  0
    4.4034    0.4805    0.0000 C   0  0  0  0  0  0  0  0  0  0  0  0
    4.9281   -2.1392    0.0000 C   0  0  0  0  0  0  0  0  0  0  0  0
    6.1244   -1.5631    0.0000 C   0  0  0  0  0  0  0  0  0  0  0  0
    3.4517   -1.5630    0.0000 C   0  0  0  0  0  0  0  0  0  0  0  0
    3.0718    0.1014    0.0000 C   0  0  0  0  0  0  0  0  0  0  0  0
    4.0454    1.2238    0.0000 C   0  0  0  0  0  0  0  0  0  0  0  0
    4.3328   -2.7104    0.0000 C   0  0  0  0  0  0  0  0  0  0  0  0
    2.6286   -1.3160    0.0000 C   0  0  0  0  0  0  0  0  0  0  0  0
    2.4374   -0.4783    0.0000 C   0  0  0  0  0  0  0  0  0  0  0  0
    4.5102    1.9054    0.0000 C   0  0  0  0  0  0  0  0  0  0  0  0
    3.2227    1.2854    0.0000 C   0  0  0  0  0  0  0  0  0  0  0  0
    4.1523    2.6488    0.0000 C   0  0  0  0  0  0  0  0  0  0  0  0
    2.8648    2.0288    0.0000 C   0  0  0  0  0  0  0  0  0  0  0  0
    3.3296    2.7104    0.0000 C   0  0  0  0  0  0  0  0  0  0  0  0
  1 18  1  0  0  0  0
  2 19  1  0  0  0  0
  3  6  1  0  0  0  0
  3  7  1  0  0  0  0
  3 11  1  0  0  0  0
  4  9  1  0  0  0  0
  4 10  2  0  0  0  0
  5 11  2  0  0  0  0
  5 12  1  0  0  0  0
  6  8  2  0  0  0  0
  6 13  1  0  0  0  0
  7  9  1  0  0  0  0
  7 12  2  0  0  0  0
  8 10  1  0  0  0  0
  8 14  1  0  0  0  0
 10 15  1  0  0  0  0
 11 16  1  0  0  0  0
 13 17  2  0  0  0  0
 14 18  2  0  0  0  0
 15 19  1  0  0  0  0
 15 20  2  0  0  0  0
 17 18  1  0  0  0  0
 19 21  2  0  0  0  0
 20 22  1  0  0  0  0
 21 23  1  0  0  0  0
 22 23  2  0  0  0  0
M  END
> <DATABASE_ID>
DB00683

> <DATABASE_NAME>
drugbank

> <SMILES>
CC1=NC=C2CN=C(C3=CC=CC=C3F)C3=C(C=CC(Cl)=C3)N12

> <INCHI_IDENTIFIER>
InChI=1S/C18H13ClFN3/c1-11-21-9-13-10-22-18(14-4-2-3-5-16(14)20)15-8-12(19)6-7-17(15)23(11)13/h2-9H,10H2,1H3

> <INCHI_KEY>
DDLIGBOFAVUZHB-UHFFFAOYSA-N

> <FORMULA>
C18H13ClFN3

> <MOLECULAR_WEIGHT>
325.767

> <EXACT_MASS>
325.078203343

> <JCHEM_ACCEPTOR_COUNT>
2

> <JCHEM_AVERAGE_POLARIZABILITY>
32.70084245900745

> <JCHEM_BIOAVAILABILITY>
1

> <JCHEM_DONOR_COUNT>
0

> <JCHEM_FORMAL_CHARGE>
0

> <JCHEM_GHOSE_FILTER>
1

> <JCHEM_IUPAC>
12-chloro-9-(2-fluorophenyl)-3-methyl-2,4,8-triazatricyclo[8.4.0.0²,⁶]tetradeca-1(10),3,5,8,11,13-hexaene

> <ALOGPS_LOGP>
3.89

> <JCHEM_LOGP>
3.3348000000000004

> <ALOGPS_LOGS>
-4.52

> <JCHEM_MDDR_LIKE_RULE>
0

> <JCHEM_NUMBER_OF_RINGS>
4

> <JCHEM_PHYSIOLOGICAL_CHARGE>
0

> <JCHEM_PKA_STRONGEST_BASIC>
6.571590140482956

> <JCHEM_POLAR_SURFACE_AREA>
30.18

> <JCHEM_REFRACTIVITY>
99.42970000000001

> <JCHEM_ROTATABLE_BOND_COUNT>
1

> <JCHEM_RULE_OF_FIVE>
1

> <ALOGPS_SOLUBILITY>
9.87e-03 g/l

> <JCHEM_TRADITIONAL_IUPAC>
midazolam

> <JCHEM_VEBER_RULE>
1

> <DRUGBANK_ID>
DB00683

> <SECONDARY_ACCESSION_NUMBERS>
APRD00680

> <DRUG_GROUPS>
approved; illicit

> <GENERIC_NAME>
Midazolam

> <SYNONYMS>
Midazolam; Midazolamum

> <PRODUCTS>
Apo-midazolam Injectable 1 mg/ml; Apo-midazolam Injectable 5 mg/ml; Buccolam; MKH Dose Pack; MKO Melt; MKO Melt Dose Pack; Midazolam; Midazolam HCl; Midazolam Hydrochloride; Midazolam Injection; Midazolam Injection BP; Midazolam Injection Sdz; Midazolam Injection USP; Midazolam hydrochloride; Nayzilam; PMS-midazolam; Seizalam; Versed Inj 1mg/ml; Versed Inj 5mg/ml

> <INTERNATIONAL_BRANDS>
Anquil; Benzosed; Dalam; Damizol; Demizolam; Doricum; Dormicum; Dormid; Dormipron; Dormire; Dormitol; Dormixal; Dormonid; Drimnorth; Epistatus; Flormidal; Fulsed; Fulsed Injection; Garen; Gobbizolam; Hipnazolam; Hipnoz; Hypnofast; Hypnovel; Ipnovel; Nocturna; Setam; Talentum; Terap; Versed

> <SALTS>
Midazolam hydrochloride; Midazolam maleate

$$$$
690
  Mrv0541 02231214562D          

 27 29  0  0  0  0            999 V2000
    5.2302   -2.7288    0.0000 Cl  0  0  0  0  0  0  0  0  0  0  0  0
    8.0735    0.3999    0.0000 F   0  0  0  0  0  0  0  0  0  0  0  0
    5.0238    1.9897    0.0000 O   0  0  0  0  0  0  0  0  0  0  0  0
    4.8673    0.6014    0.0000 N   0  0  0  0  0  0  0  0  0  0  0  0
    3.0155    1.7569    0.0000 N   0  0  0  0  0  0  0  0  0  0  0  0
    6.7212    0.6014    0.0000 N   0  0  0  0  0  0  0  0  0  0  0  0
    4.0630    0.7849    0.0000 C   0  0  0  0  0  0  0  0  0  0  0  0
    3.8198    1.5733    0.0000 C   0  0  0  0  0  0  0  0  0  0  0  0
    5.0509   -0.2030    0.0000 C   0  0  0  0  0  0  0  0  0  0  0  0
    2.4543    1.1521    0.0000 C   0  0  0  0  0  0  0  0  0  0  0  0
    2.7723    2.5453    0.0000 C   0  0  0  0  0  0  0  0  0  0  0  0
    5.7942   -0.5609    0.0000 C   0  0  0  0  0  0  0  0  0  0  0  0
    5.3817    1.2464    0.0000 C   0  0  0  0  0  0  0  0  0  0  0  0
    6.5376   -0.2030    0.0000 C   0  0  0  0  0  0  0  0  0  0  0  0
    6.2068    1.2464    0.0000 C   0  0  0  0  0  0  0  0  0  0  0  0
    4.3336   -0.6761    0.0000 C   0  0  0  0  0  0  0  0  0  0  0  0
    5.8716   -1.4168    0.0000 C   0  0  0  0  0  0  0  0  0  0  0  0
    1.6500    1.3357    0.0000 C   0  0  0  0  0  0  0  0  0  0  0  0
    1.9680    2.7288    0.0000 C   0  0  0  0  0  0  0  0  0  0  0  0
    7.1826   -0.7174    0.0000 C   0  0  0  0  0  0  0  0  0  0  0  0
    4.3911   -1.5335    0.0000 C   0  0  0  0  0  0  0  0  0  0  0  0
    5.1654   -1.9064    0.0000 C   0  0  0  0  0  0  0  0  0  0  0  0
    7.9506   -0.4160    0.0000 C   0  0  0  0  0  0  0  0  0  0  0  0
    7.0597   -1.5332    0.0000 C   0  0  0  0  0  0  0  0  0  0  0  0
    8.5956   -0.9304    0.0000 C   0  0  0  0  0  0  0  0  0  0  0  0
    7.7047   -2.0475    0.0000 C   0  0  0  0  0  0  0  0  0  0  0  0
    8.4727   -1.7461    0.0000 C   0  0  0  0  0  0  0  0  0  0  0  0
  1 22  1  0  0  0  0
  2 23  1  0  0  0  0
  3 13  2  0  0  0  0
  4  7  1  0  0  0  0
  4  9  1  0  0  0  0
  4 13  1  0  0  0  0
  5  8  1  0  0  0  0
  5 10  1  0  0  0  0
  5 11  1  0  0  0  0
  6 14  2  0  0  0  0
  6 15  1  0  0  0  0
  7  8  1  0  0  0  0
  9 12  2  0  0  0  0
  9 16  1  0  0  0  0
 10 18  1  0  0  0  0
 11 19  1  0  0  0  0
 12 14  1  0  0  0  0
 12 17  1  0  0  0  0
 13 15  1  0  0  0  0
 14 20  1  0  0  0  0
 16 21  2  0  0  0  0
 17 22  2  0  0  0  0
 20 23  1  0  0  0  0
 20 24  2  0  0  0  0
 21 22  1  0  0  0  0
 23 25  2  0  0  0  0
 24 26  1  0  0  0  0
 25 27  1  0  0  0  0
 26 27  2  0  0  0  0
M  END
> <DATABASE_ID>
DB00690

> <DATABASE_NAME>
drugbank

> <SMILES>
CCN(CC)CCN1C2=C(C=C(Cl)C=C2)C(=NCC1=O)C1=CC=CC=C1F

> <INCHI_IDENTIFIER>
InChI=1S/C21H23ClFN3O/c1-3-25(4-2)11-12-26-19-10-9-15(22)13-17(19)21(24-14-20(26)27)16-7-5-6-8-18(16)23/h5-10,13H,3-4,11-12,14H2,1-2H3

> <INCHI_KEY>
SAADBVWGJQAEFS-UHFFFAOYSA-N

> <FORMULA>
C21H23ClFN3O

> <MOLECULAR_WEIGHT>
387.878

> <EXACT_MASS>
387.151368285

> <JCHEM_ACCEPTOR_COUNT>
3

> <JCHEM_AVERAGE_POLARIZABILITY>
41.220640768421966

> <JCHEM_BIOAVAILABILITY>
1

> <JCHEM_DONOR_COUNT>
0

> <JCHEM_FORMAL_CHARGE>
0

> <JCHEM_GHOSE_FILTER>
1

> <JCHEM_IUPAC>
7-chloro-1-[2-(diethylamino)ethyl]-5-(2-fluorophenyl)-2,3-dihydro-1H-1,4-benzodiazepin-2-one

> <ALOGPS_LOGP>
3.81

> <JCHEM_LOGP>
3.951048935333333

> <ALOGPS_LOGS>
-4.59

> <JCHEM_MDDR_LIKE_RULE>
1

> <JCHEM_NUMBER_OF_RINGS>
3

> <JCHEM_PHYSIOLOGICAL_CHARGE>
1

> <JCHEM_PKA_STRONGEST_BASIC>
8.71035223145298

> <JCHEM_POLAR_SURFACE_AREA>
35.910000000000004

> <JCHEM_REFRACTIVITY>
107.54460000000003

> <JCHEM_ROTATABLE_BOND_COUNT>
6

> <JCHEM_RULE_OF_FIVE>
1

> <ALOGPS_SOLUBILITY>
1.00e-02 g/l

> <JCHEM_TRADITIONAL_IUPAC>
flurazepam

> <JCHEM_VEBER_RULE>
1

> <DRUGBANK_ID>
DB00690

> <SECONDARY_ACCESSION_NUMBERS>
APRD00983

> <DRUG_GROUPS>
approved; illicit; investigational

> <GENERIC_NAME>
Flurazepam

> <SYNONYMS>
Flurazepam; Flurazépam; Flurazepamum

> <PRODUCTS>
Bio-flurazepam; Dalmane; Flurazepam; Flurazepam 15; Flurazepam 15mg Capsule; Flurazepam 30; Flurazepam 30mg Capsule; Flurazepam Hydrochloride; Novo-flupam Cap 15mg; Novo-flupam Cap 30mg; PMS-flurazepam Cap 15mg; PMS-flurazepam Cap 30mg; Riva-flurazepam 15mg Capsules; Riva-flurazepam 30mg Capsules; Som-pam; Somnol 15mg; Somnol 30mg

> <INTERNATIONAL_BRANDS>
Dalmadorm; Dalmadorm medium; Felison; Flunox; Insumin; Sompan; Valdorm

> <SALTS>
Flurazepam hydrochloride

$$$$
801
  Mrv0541 02231215012D          

 24 26  0  0  0  0            999 V2000
    4.0267   -2.3989    0.0000 Cl  0  0  0  0  0  0  0  0  0  0  0  0
    2.8159    2.2807    0.0000 F   0  0  0  0  0  0  0  0  0  0  0  0
    1.6936    1.0712    0.0000 F   0  0  0  0  0  0  0  0  0  0  0  0
    1.6500    2.2371    0.0000 F   0  0  0  0  0  0  0  0  0  0  0  0
    4.2399    2.3989    0.0000 O   0  0  0  0  0  0  0  0  0  0  0  0
    3.6638    0.9312    0.0000 N   0  0  0  0  0  0  0  0  0  0  0  0
    5.5176    0.9312    0.0000 N   0  0  0  0  0  0  0  0  0  0  0  0
    3.8475    0.1269    0.0000 C   0  0  0  0  0  0  0  0  0  0  0  0
    4.5907   -0.2311    0.0000 C   0  0  0  0  0  0  0  0  0  0  0  0
    2.8595    1.1148    0.0000 C   0  0  0  0  0  0  0  0  0  0  0  0
    5.3340    0.1269    0.0000 C   0  0  0  0  0  0  0  0  0  0  0  0
    4.1782    1.5762    0.0000 C   0  0  0  0  0  0  0  0  0  0  0  0
    5.0032    1.5762    0.0000 C   0  0  0  0  0  0  0  0  0  0  0  0
    3.1301   -0.3462    0.0000 C   0  0  0  0  0  0  0  0  0  0  0  0
    4.6682   -1.0869    0.0000 C   0  0  0  0  0  0  0  0  0  0  0  0
    5.9790   -0.3875    0.0000 C   0  0  0  0  0  0  0  0  0  0  0  0
    2.2548    1.6759    0.0000 C   0  0  0  0  0  0  0  0  0  0  0  0
    3.1876   -1.2036    0.0000 C   0  0  0  0  0  0  0  0  0  0  0  0
    3.9619   -1.5765    0.0000 C   0  0  0  0  0  0  0  0  0  0  0  0
    6.7470   -0.0860    0.0000 C   0  0  0  0  0  0  0  0  0  0  0  0
    5.8561   -1.2033    0.0000 C   0  0  0  0  0  0  0  0  0  0  0  0
    7.3920   -0.6004    0.0000 C   0  0  0  0  0  0  0  0  0  0  0  0
    6.5011   -1.7176    0.0000 C   0  0  0  0  0  0  0  0  0  0  0  0
    7.2691   -1.4163    0.0000 C   0  0  0  0  0  0  0  0  0  0  0  0
  1 19  1  0  0  0  0
  2 17  1  0  0  0  0
  3 17  1  0  0  0  0
  4 17  1  0  0  0  0
  5 12  2  0  0  0  0
  6  8  1  0  0  0  0
  6 10  1  0  0  0  0
  6 12  1  0  0  0  0
  7 11  2  0  0  0  0
  7 13  1  0  0  0  0
  8  9  2  0  0  0  0
  8 14  1  0  0  0  0
  9 11  1  0  0  0  0
  9 15  1  0  0  0  0
 10 17  1  0  0  0  0
 11 16  1  0  0  0  0
 12 13  1  0  0  0  0
 14 18  2  0  0  0  0
 15 19  2  0  0  0  0
 16 20  2  0  0  0  0
 16 21  1  0  0  0  0
 18 19  1  0  0  0  0
 20 22  1  0  0  0  0
 21 23  2  0  0  0  0
 22 24  2  0  0  0  0
 23 24  1  0  0  0  0
M  END
> <DATABASE_ID>
DB00801

> <DATABASE_NAME>
drugbank

> <SMILES>
FC(F)(F)CN1C2=C(C=C(Cl)C=C2)C(=NCC1=O)C1=CC=CC=C1

> <INCHI_IDENTIFIER>
InChI=1S/C17H12ClF3N2O/c18-12-6-7-14-13(8-12)16(11-4-2-1-3-5-11)22-9-15(24)23(14)10-17(19,20)21/h1-8H,9-10H2

> <INCHI_KEY>
WYCLKVQLVUQKNZ-UHFFFAOYSA-N

> <FORMULA>
C17H12ClF3N2O

> <MOLECULAR_WEIGHT>
352.738

> <EXACT_MASS>
352.059025338

> <JCHEM_ACCEPTOR_COUNT>
2

> <JCHEM_AVERAGE_POLARIZABILITY>
31.824300722372104

> <JCHEM_BIOAVAILABILITY>
1

> <JCHEM_DONOR_COUNT>
0

> <JCHEM_FORMAL_CHARGE>
0

> <JCHEM_GHOSE_FILTER>
1

> <JCHEM_IUPAC>
7-chloro-5-phenyl-1-(2,2,2-trifluoroethyl)-2,3-dihydro-1H-1,4-benzodiazepin-2-one

> <ALOGPS_LOGP>
3.52

> <JCHEM_LOGP>
4.0311828043333335

> <ALOGPS_LOGS>
-5.32

> <JCHEM_MDDR_LIKE_RULE>
0

> <JCHEM_NUMBER_OF_RINGS>
3

> <JCHEM_PHYSIOLOGICAL_CHARGE>
0

> <JCHEM_PKA_STRONGEST_ACIDIC>
18.878327984730664

> <JCHEM_PKA_STRONGEST_BASIC>
2.3251494399058754

> <JCHEM_POLAR_SURFACE_AREA>
32.67

> <JCHEM_REFRACTIVITY>
85.26200000000001

> <JCHEM_ROTATABLE_BOND_COUNT>
3

> <JCHEM_RULE_OF_FIVE>
1

> <ALOGPS_SOLUBILITY>
1.70e-03 g/l

> <JCHEM_TRADITIONAL_IUPAC>
halazepam

> <JCHEM_VEBER_RULE>
1

> <DRUGBANK_ID>
DB00801

> <SECONDARY_ACCESSION_NUMBERS>
APRD01009

> <DRUG_GROUPS>
approved; illicit; withdrawn

> <GENERIC_NAME>
Halazepam

> <SYNONYMS>
Halazépam; Halazepam; Halazepamum

> <INTERNATIONAL_BRANDS>
Alapryl; Pacinone; Paxipam

$$$$

  Mrv1718001081909052D          

 30 32  0  0  0  0            999 V2000
   -0.6600    0.4331    0.0000 C   0  0  0  0  0  0  0  0  0  0  0  0
   -1.3613    0.0206    0.0000 C   0  0  0  0  0  0  0  0  0  0  0  0
   -1.3613   -0.8456    0.0000 C   0  0  0  0  0  0  0  0  0  0  0  0
   -0.6600   -1.2581    0.0000 N   0  0  0  0  0  0  0  0  0  0  0  0
    0.0824   -0.8456    0.0000 C   0  0  0  0  0  0  0  0  0  0  0  0
    0.0824    0.0206    0.0000 C   0  0  0  0  0  0  0  0  0  0  0  0
    0.0824    0.8456    0.0000 C   0  0  0  0  0  0  0  0  0  0  0  0
   -1.3613    0.8456    0.0000 N   0  0  0  0  0  0  0  0  0  0  0  0
   -2.0213    0.4331    0.0000 C   0  0  0  0  0  0  0  0  0  0  0  0
   -1.3613    1.6706    0.0000 C   0  0  0  0  0  0  0  0  0  0  0  0
   -0.6600    2.0832    0.0000 C   0  0  0  0  0  0  0  0  0  0  0  0
   -0.6600    2.9494    0.0000 C   0  0  0  0  0  0  0  0  0  0  0  0
   -1.3613    3.3619    0.0000 C   0  0  0  0  0  0  0  0  0  0  0  0
   -2.0626    2.9082    0.0000 C   0  0  0  0  0  0  0  0  0  0  0  0
   -2.0626    2.0832    0.0000 C   0  0  0  0  0  0  0  0  0  0  0  0
   -2.7226    0.8456    0.0000 C   0  0  0  0  0  0  0  0  0  0  0  0
   -3.5063    0.4331    0.0000 C   0  0  0  0  0  0  0  0  0  0  0  0
   -2.0213   -0.3918    0.0000 O   0  0  0  0  0  0  0  0  0  0  0  0
    0.7837    0.4331    0.0000 O   0  0  0  0  0  0  0  0  0  0  0  0
    1.4849    0.8456    0.0000 C   0  0  0  0  0  0  0  0  0  0  0  0
   -0.6600   -2.0832    0.0000 C   0  0  0  0  0  0  0  0  0  0  0  0
    0.0412   -2.4544    0.0000 C   0  0  0  0  0  0  0  0  0  0  0  0
    0.7837   -2.0832    0.0000 N   0  0  0  0  0  0  0  0  0  0  0  0
    1.4437   -2.5369    0.0000 C   0  0  0  0  0  0  0  0  0  0  0  0
    2.1038   -2.0419    0.0000 N   0  0  0  0  0  0  0  0  0  0  0  0
    1.8563   -1.2993    0.0000 N   0  0  0  0  0  0  0  0  0  0  0  0
    1.0312   -1.2993    0.0000 N   0  0  0  0  0  0  0  0  0  0  0  0
    1.4437   -3.3619    0.0000 O   0  0  0  0  0  0  0  0  0  0  0  0
    2.8050   -2.4544    0.0000 C   0  0  0  0  0  0  0  0  0  0  0  0
    3.5063   -2.0419    0.0000 C   0  0  0  0  0  0  0  0  0  0  0  0
  1  2  1  0  0  0  0
  2  3  1  0  0  0  0
  3  4  1  0  0  0  0
  4  5  1  0  0  0  0
  5  6  1  0  0  0  0
  1  6  1  0  0  0  0
  1  7  1  0  0  0  0
  1  8  1  0  0  0  0
  8  9  1  0  0  0  0
  8 10  1  0  0  0  0
 10 11  2  0  0  0  0
 11 12  1  0  0  0  0
 12 13  2  0  0  0  0
 13 14  1  0  0  0  0
 14 15  2  0  0  0  0
 10 15  1  0  0  0  0
  9 16  1  0  0  0  0
 16 17  1  0  0  0  0
  9 18  2  0  0  0  0
  7 19  1  0  0  0  0
 19 20  1  0  0  0  0
  4 21  1  0  0  0  0
 21 22  1  0  0  0  0
 22 23  1  0  0  0  0
 23 24  1  0  0  0  0
 24 25  1  0  0  0  0
 25 26  1  0  0  0  0
 26 27  2  0  0  0  0
 23 27  1  0  0  0  0
 24 28  2  0  0  0  0
 25 29  1  0  0  0  0
 29 30  1  0  0  0  0
M  END
> <DATABASE_ID>
DB00802

> <DATABASE_NAME>
drugbank

> <SMILES>
CCN1N=NN(CCN2CCC(COC)(CC2)N(C(=O)CC)C2=CC=CC=C2)C1=O

> <INCHI_IDENTIFIER>
InChI=1S/C21H32N6O3/c1-4-19(28)27(18-9-7-6-8-10-18)21(17-30-3)11-13-24(14-12-21)15-16-26-20(29)25(5-2)22-23-26/h6-10H,4-5,11-17H2,1-3H3

> <INCHI_KEY>
IDBPHNDTYPBSNI-UHFFFAOYSA-N

> <FORMULA>
C21H32N6O3

> <MOLECULAR_WEIGHT>
416.5172

> <EXACT_MASS>
416.25358892

> <JCHEM_ACCEPTOR_COUNT>
6

> <JCHEM_ATOM_COUNT>
62

> <JCHEM_AVERAGE_POLARIZABILITY>
45.55814916238788

> <JCHEM_BIOAVAILABILITY>
1

> <JCHEM_DONOR_COUNT>
0

> <JCHEM_FORMAL_CHARGE>
0

> <JCHEM_GHOSE_FILTER>
1

> <JCHEM_IUPAC>
N-{1-[2-(4-ethyl-5-oxo-4,5-dihydro-1H-1,2,3,4-tetrazol-1-yl)ethyl]-4-(methoxymethyl)piperidin-4-yl}-N-phenylpropanamide

> <ALOGPS_LOGP>
2.20

> <JCHEM_LOGP>
2.8073737583333327

> <ALOGPS_LOGS>
-3.22

> <JCHEM_MDDR_LIKE_RULE>
1

> <JCHEM_NUMBER_OF_RINGS>
3

> <JCHEM_PHYSIOLOGICAL_CHARGE>
1

> <JCHEM_PKA_STRONGEST_BASIC>
7.504330578680922

> <JCHEM_POLAR_SURFACE_AREA>
81.05000000000001

> <JCHEM_REFRACTIVITY>
118.59200000000001

> <JCHEM_ROTATABLE_BOND_COUNT>
9

> <JCHEM_RULE_OF_FIVE>
1

> <ALOGPS_SOLUBILITY>
2.52e-01 g/l

> <JCHEM_TRADITIONAL_IUPAC>
alfentanil

> <JCHEM_VEBER_RULE>
0

> <DRUGBANK_ID>
DB00802

> <SECONDARY_ACCESSION_NUMBERS>
APRD00726

> <DRUG_GROUPS>
approved; illicit

> <GENERIC_NAME>
Alfentanil

> <SYNONYMS>
Alfentanil; Alfentanilo; Alfentanilum; Alfentanyl; N-(1-(2-(4-Ethyl-5-oxo-2-tetrazolin-1-yl)ethyl)-4-(methoxymethyl)-4-piperidyl)propionanilide

> <PRODUCTS>
Alfenta; Alfenta Inj 500mcg/ml; Alfentanil; Alfentanil Hydrochloride; Alfentanil Injection USP

> <INTERNATIONAL_BRANDS>
Rapifen

> <SALTS>
Alfentanil hydrochloride

$$$$
813
  Mrv0541 02231215012D          

 25 27  0  0  0  0            999 V2000
    1.6500    2.2688    0.0000 O   0  0  0  0  0  0  0  0  0  0  0  0
    3.0791   -0.2063    0.0000 N   0  0  0  0  0  0  0  0  0  0  0  0
    3.0791    2.2688    0.0000 N   0  0  0  0  0  0  0  0  0  0  0  0
    3.0791    1.4438    0.0000 C   0  0  0  0  0  0  0  0  0  0  0  0
    3.7935    1.0313    0.0000 C   0  0  0  0  0  0  0  0  0  0  0  0
    2.3645    1.0313    0.0000 C   0  0  0  0  0  0  0  0  0  0  0  0
    3.7935    0.2063    0.0000 C   0  0  0  0  0  0  0  0  0  0  0  0
    2.3645    0.2063    0.0000 C   0  0  0  0  0  0  0  0  0  0  0  0
    3.0791   -1.0313    0.0000 C   0  0  0  0  0  0  0  0  0  0  0  0
    2.3645   -1.4438    0.0000 C   0  0  0  0  0  0  0  0  0  0  0  0
    3.7935    2.6813    0.0000 C   0  0  0  0  0  0  0  0  0  0  0  0
    2.3645    2.6813    0.0000 C   0  0  0  0  0  0  0  0  0  0  0  0
    2.3645   -2.2688    0.0000 C   0  0  0  0  0  0  0  0  0  0  0  0
    2.3645    3.5063    0.0000 C   0  0  0  0  0  0  0  0  0  0  0  0
    3.7935    3.5063    0.0000 C   0  0  0  0  0  0  0  0  0  0  0  0
    4.5080    2.2688    0.0000 C   0  0  0  0  0  0  0  0  0  0  0  0
    1.6500    3.9188    0.0000 C   0  0  0  0  0  0  0  0  0  0  0  0
    3.0791   -2.6813    0.0000 C   0  0  0  0  0  0  0  0  0  0  0  0
    1.6500   -2.6813    0.0000 C   0  0  0  0  0  0  0  0  0  0  0  0
    4.5080    3.9188    0.0000 C   0  0  0  0  0  0  0  0  0  0  0  0
    5.2224    2.6813    0.0000 C   0  0  0  0  0  0  0  0  0  0  0  0
    5.2224    3.5063    0.0000 C   0  0  0  0  0  0  0  0  0  0  0  0
    3.0791   -3.5063    0.0000 C   0  0  0  0  0  0  0  0  0  0  0  0
    1.6500   -3.5063    0.0000 C   0  0  0  0  0  0  0  0  0  0  0  0
    2.3645   -3.9188    0.0000 C   0  0  0  0  0  0  0  0  0  0  0  0
  1 12  2  0  0  0  0
  2  7  1  0  0  0  0
  2  8  1  0  0  0  0
  2  9  1  0  0  0  0
  3  4  1  0  0  0  0
  3 11  1  0  0  0  0
  3 12  1  0  0  0  0
  4  5  1  0  0  0  0
  4  6  1  0  0  0  0
  5  7  1  0  0  0  0
  6  8  1  0  0  0  0
  9 10  1  0  0  0  0
 10 13  1  0  0  0  0
 11 15  2  0  0  0  0
 11 16  1  0  0  0  0
 12 14  1  0  0  0  0
 13 18  2  0  0  0  0
 13 19  1  0  0  0  0
 14 17  1  0  0  0  0
 15 20  1  0  0  0  0
 16 21  2  0  0  0  0
 18 23  1  0  0  0  0
 19 24  2  0  0  0  0
 20 22  2  0  0  0  0
 21 22  1  0  0  0  0
 23 25  2  0  0  0  0
 24 25  1  0  0  0  0
M  END
> <DATABASE_ID>
DB00813

> <DATABASE_NAME>
drugbank

> <SMILES>
CCC(=O)N(C1CCN(CCC2=CC=CC=C2)CC1)C1=CC=CC=C1

> <INCHI_IDENTIFIER>
InChI=1S/C22H28N2O/c1-2-22(25)24(20-11-7-4-8-12-20)21-14-17-23(18-15-21)16-13-19-9-5-3-6-10-19/h3-12,21H,2,13-18H2,1H3

> <INCHI_KEY>
PJMPHNIQZUBGLI-UHFFFAOYSA-N

> <FORMULA>
C22H28N2O

> <MOLECULAR_WEIGHT>
336.4705

> <EXACT_MASS>
336.220163528

> <JCHEM_ACCEPTOR_COUNT>
2

> <JCHEM_AVERAGE_POLARIZABILITY>
40.03155001690744

> <JCHEM_BIOAVAILABILITY>
1

> <JCHEM_DONOR_COUNT>
0

> <JCHEM_FORMAL_CHARGE>
0

> <JCHEM_GHOSE_FILTER>
1

> <JCHEM_IUPAC>
N-phenyl-N-[1-(2-phenylethyl)piperidin-4-yl]propanamide

> <ALOGPS_LOGP>
4.12

> <JCHEM_LOGP>
3.8154985483333332

> <ALOGPS_LOGS>
-4.15

> <JCHEM_MDDR_LIKE_RULE>
1

> <JCHEM_NUMBER_OF_RINGS>
3

> <JCHEM_PHYSIOLOGICAL_CHARGE>
1

> <JCHEM_PKA_STRONGEST_BASIC>
8.767614789214603

> <JCHEM_POLAR_SURFACE_AREA>
23.550000000000004

> <JCHEM_REFRACTIVITY>
103.48250000000004

> <JCHEM_ROTATABLE_BOND_COUNT>
6

> <JCHEM_RULE_OF_FIVE>
1

> <ALOGPS_SOLUBILITY>
2.40e-02 g/l

> <JCHEM_TRADITIONAL_IUPAC>
fentanyl

> <JCHEM_VEBER_RULE>
1

> <DRUGBANK_ID>
DB00813

> <SECONDARY_ACCESSION_NUMBERS>
APRD00347; DB05853; DB06055; DB06220; DB05564

> <DRUG_GROUPS>
approved; illicit; investigational; vet_approved

> <GENERIC_NAME>
Fentanyl

> <SYNONYMS>
1-Phenethyl-4-(N-phenylpropionamido)piperidine; 1-phenethyl-4-N-propionylanilinopiperidine; Fentanil; Fentanila; Fentanilo; Fentanyl; Fentanyl CII; Fentanylum; N-(1-phenethyl-4-piperidinyl)-N-phenylpropionamide; N-(1-phenethyl-4-piperidyl)propionanilide; N-(1-Phenethyl-piperidin-4-yl)-N-phenyl-propionamide; N-(1-phenethylpiperidin-4-yl)-N-phenylpropionamide; N-phenethyl-4-(N-propionylanilino)piperidine; N-phenyl-N-(1-(2-phenylethyl)-4-piperidinyl)propanamide; Phentanyl

> <PRODUCTS>
Abstral; Abstral fentanyl; Actiq; Apo-fentanyl Matrix; Co Fentanyl; DURAGESIC (fentanyl system); Duragesic; Duragesic 100; Duragesic 12; Duragesic 25; Duragesic 50; Duragesic 75; Effentora; Fentanyl; Fentanyl - NOVAPLUS; Fentanyl Buccal; Fentanyl Citrate; Fentanyl Citrate Injection; Fentanyl Citrate Injection Sdz; Fentanyl Citrate Injection U.S.P.-liq IV Im Epd; Fentanyl Citrate Injection USP; Fentanyl Citrate Injection USP 50mcg/ml; Fentanyl Citrate Injection, USP; Fentanyl Citrate, Bupivacaine HCl; Fentanyl Injection BP; Fentanyl Patch; Fentanyl System; Fentanyl Transdermal; Fentanyl Transdermal System; Fentanyl Transdermal System 100; Fentanyl Transdermal System 25; Fentanyl Transdermal System 50; Fentanyl Transdermal System 75; Fentanyl transdermal system; Fentora; Innovar Inj; Instanyl; Ionsys; Lazanda; Mylan-fentanyl Matrix Patch; Onsolis; PMS-fentanyl Mtx; Pat-fentanyl Mat; Pecfent; Ran-fentanyl Matrix Patch; Ran-fentanyl Transdermal System; Sandoz Fentanyl Patch; Sublimaze; Sublimaze Inj 50mcg/ml; Subsys; Teva-fentanyl; Transmucosal Fentanyl Citrate

> <INTERNATIONAL_BRANDS>
Durogesic; Fentanest; Nasalfent; Rapinyl

> <SALTS>
Fentanyl citrate; Fentanyl hydrochloride

$$$$
829
  Mrv0541 02231215022D          

 20 22  0  0  0  0            999 V2000
    2.8172   -2.3592    0.0000 Cl  0  0  0  0  0  0  0  0  0  0  0  0
    2.6107    2.3592    0.0000 O   0  0  0  0  0  0  0  0  0  0  0  0
    2.4542    0.9709    0.0000 N   0  0  0  0  0  0  0  0  0  0  0  0
    4.3080    0.9709    0.0000 N   0  0  0  0  0  0  0  0  0  0  0  0
    3.3811   -0.1914    0.0000 C   0  0  0  0  0  0  0  0  0  0  0  0
    2.6378    0.1666    0.0000 C   0  0  0  0  0  0  0  0  0  0  0  0
    4.1244    0.1666    0.0000 C   0  0  0  0  0  0  0  0  0  0  0  0
    3.7936    1.6159    0.0000 C   0  0  0  0  0  0  0  0  0  0  0  0
    2.9686    1.6159    0.0000 C   0  0  0  0  0  0  0  0  0  0  0  0
    4.7694   -0.3478    0.0000 C   0  0  0  0  0  0  0  0  0  0  0  0
    3.4586   -1.0472    0.0000 C   0  0  0  0  0  0  0  0  0  0  0  0
    1.9205   -0.3065    0.0000 C   0  0  0  0  0  0  0  0  0  0  0  0
    1.6500    1.1545    0.0000 C   0  0  0  0  0  0  0  0  0  0  0  0
    2.7523   -1.5367    0.0000 C   0  0  0  0  0  0  0  0  0  0  0  0
    1.9781   -1.1639    0.0000 C   0  0  0  0  0  0  0  0  0  0  0  0
    5.5374   -0.0464    0.0000 C   0  0  0  0  0  0  0  0  0  0  0  0
    4.6465   -1.1636    0.0000 C   0  0  0  0  0  0  0  0  0  0  0  0
    6.1824   -0.5607    0.0000 C   0  0  0  0  0  0  0  0  0  0  0  0
    5.2915   -1.6779    0.0000 C   0  0  0  0  0  0  0  0  0  0  0  0
    6.0594   -1.3765    0.0000 C   0  0  0  0  0  0  0  0  0  0  0  0
  1 14  1  0  0  0  0
  2  9  2  0  0  0  0
  3  6  1  0  0  0  0
  3  9  1  0  0  0  0
  3 13  1  0  0  0  0
  4  7  2  0  0  0  0
  4  8  1  0  0  0  0
  5  6  2  0  0  0  0
  5  7  1  0  0  0  0
  5 11  1  0  0  0  0
  6 12  1  0  0  0  0
  7 10  1  0  0  0  0
  8  9  1  0  0  0  0
 10 16  2  0  0  0  0
 10 17  1  0  0  0  0
 11 14  2  0  0  0  0
 12 15  2  0  0  0  0
 14 15  1  0  0  0  0
 16 18  1  0  0  0  0
 17 19  2  0  0  0  0
 18 20  2  0  0  0  0
 19 20  1  0  0  0  0
M  END
> <DATABASE_ID>
DB00829

> <DATABASE_NAME>
drugbank

> <SMILES>
CN1C2=C(C=C(Cl)C=C2)C(=NCC1=O)C1=CC=CC=C1

> <INCHI_IDENTIFIER>
InChI=1S/C16H13ClN2O/c1-19-14-8-7-12(17)9-13(14)16(18-10-15(19)20)11-5-3-2-4-6-11/h2-9H,10H2,1H3

> <INCHI_KEY>
AAOVKJBEBIDNHE-UHFFFAOYSA-N

> <FORMULA>
C16H13ClN2O

> <MOLECULAR_WEIGHT>
284.74

> <EXACT_MASS>
284.071640755

> <JCHEM_ACCEPTOR_COUNT>
2

> <JCHEM_AVERAGE_POLARIZABILITY>
29.386528122049114

> <JCHEM_BIOAVAILABILITY>
1

> <JCHEM_DONOR_COUNT>
0

> <JCHEM_FORMAL_CHARGE>
0

> <JCHEM_GHOSE_FILTER>
1

> <JCHEM_IUPAC>
7-chloro-1-methyl-5-phenyl-2,3-dihydro-1H-1,4-benzodiazepin-2-one

> <ALOGPS_LOGP>
2.63

> <JCHEM_LOGP>
3.0760865673333337

> <ALOGPS_LOGS>
-4.37

> <JCHEM_MDDR_LIKE_RULE>
0

> <JCHEM_NUMBER_OF_RINGS>
3

> <JCHEM_PHYSIOLOGICAL_CHARGE>
0

> <JCHEM_PKA_STRONGEST_BASIC>
2.921450447162867

> <JCHEM_POLAR_SURFACE_AREA>
32.67

> <JCHEM_REFRACTIVITY>
79.81190000000002

> <JCHEM_ROTATABLE_BOND_COUNT>
1

> <JCHEM_RULE_OF_FIVE>
1

> <ALOGPS_SOLUBILITY>
1.22e-02 g/l

> <JCHEM_TRADITIONAL_IUPAC>
diazepam

> <JCHEM_VEBER_RULE>
1

> <DRUGBANK_ID>
DB00829

> <SECONDARY_ACCESSION_NUMBERS>
APRD00642; DB07699

> <DRUG_GROUPS>
approved; illicit; investigational; vet_approved

> <GENERIC_NAME>
Diazepam

> <SYNONYMS>
7-chloro-1,3-dihydro-1-methyl-5-phenyl-2H-1,4-benzodiazepin-2-one; Diazepam; Methyl diazepinone

> <PRODUCTS>
Bio-diazepam; Diastat; Diazemuls; Diazepam; Diazepam 10mg Tablets; Diazepam 10tab 10mg; Diazepam 2mg Tablets; Diazepam 2tab 2mg; Diazepam 5 Tab; Diazepam 5mg Tablets; Diazepam Autoinjector; Diazepam Injection Sdz; Diazepam Injection USP; Diazepam Intensol; E Pam Tab 10mg; E Pam Tab 2mg; E Pam Tab 5mg; Gabavale-5; Meval 2; Meval 5; Novo-dipam Tab 10mg; Novo-dipam Tab 2mg; Novo-dipam Tab 5mg; PMS-diazepam; PMS-diazepam Solution 1mg/ml; Topical Nerve Pain; Topical Pain; Valium; Valium 10 Tab; Valium 5 Tab; Valium Inj Roche 5mg/ml; Valtoco; Vivol

> <INTERNATIONAL_BRANDS>
Diapam; Nervium; Relanium

> <SALTS>
Diazepam hydrochloride

$$$$
830
  Mrv0541 02231215022D          

 13 14  0  0  1  0            999 V2000
    4.5080    0.4620    0.0000 O   0  0  0  0  0  0  0  0  0  0  0  0
    4.5080   -1.1880    0.0000 N   0  0  0  0  0  0  0  0  0  0  0  0
    3.7935   -0.7755    0.0000 C   0  0  0  0  0  0  0  0  0  0  0  0
    3.7935    0.0495    0.0000 C   0  0  0  0  0  0  0  0  0  0  0  0
    5.2224   -0.7755    0.0000 C   0  0  0  0  0  0  0  0  0  0  0  0
    5.2224    0.0495    0.0000 C   0  0  0  0  0  0  0  0  0  0  0  0
    3.0791    0.4620    0.0000 C   0  0  0  0  0  0  0  0  0  0  0  0
    3.0791   -1.1880    0.0000 C   0  0  0  0  0  0  0  0  0  0  0  0
    2.3645    0.0495    0.0000 C   0  0  0  0  0  0  0  0  0  0  0  0
    3.0791    1.2870    0.0000 C   0  0  0  0  0  0  0  0  0  0  0  0
    1.6500    0.4620    0.0000 C   0  0  0  0  0  0  0  0  0  0  0  0
    2.3645    1.6995    0.0000 C   0  0  0  0  0  0  0  0  0  0  0  0
    1.6500    1.2870    0.0000 C   0  0  0  0  0  0  0  0  0  0  0  0
  1  4  1  0  0  0  0
  1  6  1  0  0  0  0
  2  3  1  0  0  0  0
  2  5  1  0  0  0  0
  3  4  1  0  0  0  0
  3  8  1  0  0  0  0
  4  7  1  0  0  0  0
  5  6  1  0  0  0  0
  7  9  2  0  0  0  0
  7 10  1  0  0  0  0
  9 11  1  0  0  0  0
 10 12  2  0  0  0  0
 11 13  2  0  0  0  0
 12 13  1  0  0  0  0
M  END
> <DATABASE_ID>
DB00830

> <DATABASE_NAME>
drugbank

> <SMILES>
CC1NCCOC1C1=CC=CC=C1

> <INCHI_IDENTIFIER>
InChI=1S/C11H15NO/c1-9-11(13-8-7-12-9)10-5-3-2-4-6-10/h2-6,9,11-12H,7-8H2,1H3

> <INCHI_KEY>
OOBHFESNSZDWIU-UHFFFAOYSA-N

> <FORMULA>
C11H15NO

> <MOLECULAR_WEIGHT>
177.2429

> <EXACT_MASS>
177.115364107

> <JCHEM_ACCEPTOR_COUNT>
2

> <JCHEM_AVERAGE_POLARIZABILITY>
20.09805902270938

> <JCHEM_BIOAVAILABILITY>
1

> <JCHEM_DONOR_COUNT>
1

> <JCHEM_FORMAL_CHARGE>
0

> <JCHEM_GHOSE_FILTER>
1

> <JCHEM_IUPAC>
3-methyl-2-phenylmorpholine

> <ALOGPS_LOGP>
1.45

> <JCHEM_LOGP>
1.7894362886666664

> <ALOGPS_LOGS>
-1.86

> <JCHEM_MDDR_LIKE_RULE>
0

> <JCHEM_NUMBER_OF_RINGS>
2

> <JCHEM_PHYSIOLOGICAL_CHARGE>
1

> <JCHEM_PKA_STRONGEST_BASIC>
8.222129279868874

> <JCHEM_POLAR_SURFACE_AREA>
21.259999999999998

> <JCHEM_REFRACTIVITY>
52.46950000000001

> <JCHEM_ROTATABLE_BOND_COUNT>
1

> <JCHEM_RULE_OF_FIVE>
1

> <ALOGPS_SOLUBILITY>
2.44e+00 g/l

> <JCHEM_TRADITIONAL_IUPAC>
phenmetrazine

> <JCHEM_VEBER_RULE>
1

> <DRUGBANK_ID>
DB00830

> <SECONDARY_ACCESSION_NUMBERS>
APRD00262

> <DRUG_GROUPS>
approved; illicit

> <GENERIC_NAME>
Phenmetrazine

> <SYNONYMS>
2-phenyl-3-methylmorpholine; Fenmetrazin; Fenmetrazina; Phenmetrazin; Phenmetrazinum

> <INTERNATIONAL_BRANDS>
Preludin

> <SALTS>
Phenmetrazine hydrochloride

$$$$

  Mrv0541 04191212152D          

 26 29  0  0  1  0            999 V2000
    1.8036   -0.1138    0.0000 C   0  0  0  0  0  0  0  0  0  0  0  0
    0.3045   -1.0964    0.0000 C   0  0  0  0  0  0  0  0  0  0  0  0
    1.8036    1.2211    0.0000 C   0  0  1  0  0  0  0  0  0  0  0  0
    0.3045    1.3786    0.0000 C   0  0  0  0  0  0  0  0  0  0  0  0
    2.2885    0.5536    0.0000 C   0  0  0  0  0  0  0  0  0  0  0  0
   -1.1245   -0.2714    0.0000 C   0  0  2  0  0  0  0  0  0  0  0  0
   -0.4100    0.9661    0.0000 C   0  0  0  0  0  0  0  0  0  0  0  0
   -0.4100   -1.5089    0.0000 C   0  0  0  0  0  0  0  0  0  0  0  0
   -1.1245   -1.0964    0.0000 C   0  0  1  0  0  0  0  0  0  0  0  0
   -1.8390    0.1411    0.0000 C   0  0  0  0  0  0  0  0  0  0  0  0
   -1.8390   -1.5089    0.0000 C   0  0  0  0  0  0  0  0  0  0  0  0
   -2.5534   -0.2714    0.0000 C   0  0  2  0  0  0  0  0  0  0  0  0
    0.3045   -0.2714    0.0000 C   0  0  2  0  0  0  0  0  0  0  0  0
    0.3045    0.5536    0.0000 H   0  0  0  0  0  0  0  0  0  0  0  0
   -0.4100    0.1411    0.0000 C   0  0  1  0  0  0  0  0  0  0  0  0
   -0.4100   -0.6839    0.0000 H   0  0  0  0  0  0  0  0  0  0  0  0
    1.0189    0.9661    0.0000 C   0  0  2  0  0  0  0  0  0  0  0  0
    1.0189    1.7911    0.0000 C   0  0  0  0  0  0  0  0  0  0  0  0
    1.0189    0.1411    0.0000 C   0  0  1  0  0  0  0  0  0  0  0  0
    1.0189   -0.6839    0.0000 H   0  0  0  0  0  0  0  0  0  0  0  0
   -3.2679   -1.5089    0.0000 O   0  0  0  0  0  0  0  0  0  0  0  0
   -2.5534   -1.0964    0.0000 C   0  0  0  0  0  0  0  0  0  0  0  0
   -1.1245    0.5536    0.0000 C   0  0  0  0  0  0  0  0  0  0  0  0
    1.8036    2.0461    0.0000 O   0  0  0  0  0  0  0  0  0  0  0  0
   -3.2679    0.1411    0.0000 C   0  0  0  0  0  0  0  0  0  0  0  0
   -1.1245   -1.9214    0.0000 H   0  0  0  0  0  0  0  0  0  0  0  0
 19 13  1  0  0  0  0
 19 17  1  0  0  0  0
 19  1  1  0  0  0  0
 13 15  1  0  0  0  0
 13  2  1  0  0  0  0
 17  3  1  0  0  0  0
 17  4  1  0  0  0  0
  5  1  1  0  0  0  0
 15  6  1  0  0  0  0
 15  7  1  0  0  0  0
  2  8  1  0  0  0  0
  6  9  1  0  0  0  0
  6 10  1  0  0  0  0
  9 11  1  0  0  0  0
 10 12  1  0  0  0  0
 11 22  1  0  0  0  0
  3  5  1  0  0  0  0
  4  7  1  0  0  0  0
  8  9  1  0  0  0  0
 12 22  1  0  0  0  0
 13 14  1  1  0  0  0
 15 16  1  6  0  0  0
 17 18  1  1  0  0  0
 19 20  1  6  0  0  0
 22 21  2  0  0  0  0
  6 23  1  1  0  0  0
  3 24  1  1  0  0  0
 12 25  1  6  0  0  0
  9 26  1  6  0  0  0
M  END
> <DATABASE_ID>
DB00858

> <DATABASE_NAME>
drugbank

> <SMILES>
[H][C@@]12CC[C@H](O)[C@@]1(C)CC[C@@]1([H])[C@@]2([H])CC[C@@]2([H])CC(=O)[C@H](C)C[C@]12C

> <INCHI_IDENTIFIER>
InChI=1S/C20H32O2/c1-12-11-20(3)13(10-17(12)21)4-5-14-15-6-7-18(22)19(15,2)9-8-16(14)20/h12-16,18,22H,4-11H2,1-3H3/t12-,13+,14+,15+,16+,18+,19+,20+/m1/s1

> <INCHI_KEY>
IKXILDNPCZPPRV-RFMGOVQKSA-N

> <FORMULA>
C20H32O2

> <MOLECULAR_WEIGHT>
304.4669

> <EXACT_MASS>
304.240230268

> <JCHEM_ACCEPTOR_COUNT>
2

> <JCHEM_AVERAGE_POLARIZABILITY>
36.791835560237644

> <JCHEM_BIOAVAILABILITY>
1

> <JCHEM_DONOR_COUNT>
1

> <JCHEM_FORMAL_CHARGE>
0

> <JCHEM_GHOSE_FILTER>
1

> <JCHEM_IUPAC>
(1S,2S,4R,7S,10R,11S,14S,15S)-14-hydroxy-2,4,15-trimethyltetracyclo[8.7.0.0²,⁷.0¹¹,¹⁵]heptadecan-5-one

> <ALOGPS_LOGP>
3.81

> <JCHEM_LOGP>
3.9542439110000007

> <ALOGPS_LOGS>
-4.70

> <JCHEM_MDDR_LIKE_RULE>
0

> <JCHEM_NUMBER_OF_RINGS>
4

> <JCHEM_PHYSIOLOGICAL_CHARGE>
0

> <JCHEM_PKA_STRONGEST_ACIDIC>
19.37770535655283

> <JCHEM_PKA_STRONGEST_BASIC>
-0.8839915482434103

> <JCHEM_POLAR_SURFACE_AREA>
37.3

> <JCHEM_REFRACTIVITY>
88.17759999999998

> <JCHEM_ROTATABLE_BOND_COUNT>
0

> <JCHEM_RULE_OF_FIVE>
1

> <ALOGPS_SOLUBILITY>
6.05e-03 g/l

> <JCHEM_TRADITIONAL_IUPAC>
drostanolone

> <JCHEM_VEBER_RULE>
1

> <DRUGBANK_ID>
DB00858

> <SECONDARY_ACCESSION_NUMBERS>
APRD00938

> <DRUG_GROUPS>
illicit

> <GENERIC_NAME>
Drostanolone

> <SYNONYMS>
17beta-Hydroxy-2alpha-methyl-5alpha-androstan-3-one; 2α-Methyldihydrotestosterone; Dihydro-2α-methyltestosterone; Dromostanolone; Drostanolona; Drostanolone; Drostanolonum; Medrosteron; Medrotestron; Metholone

$$$$

  Mrv0541 04191212152D          

 18 19  0  0  0  0            999 V2000
    3.8484   -3.8637    0.0000 C   0  0  0  0  0  0  0  0  0  0  0  0
    4.5652   -3.4465    0.0000 C   0  0  0  0  0  0  0  0  0  0  0  0
    3.8484   -4.6910    0.0000 C   0  0  0  0  0  0  0  0  0  0  0  0
    3.1311   -3.4465    0.0000 C   0  0  0  0  0  0  0  0  0  0  0  0
    5.2790   -3.8603    0.0000 C   0  0  1  0  0  0  0  0  0  0  0  0
    3.1311   -5.1047    0.0000 C   0  0  0  0  0  0  0  0  0  0  0  0
    2.4109   -3.8637    0.0000 C   0  0  0  0  0  0  0  0  0  0  0  0
    5.9959   -3.4465    0.0000 N   0  0  0  0  0  0  0  0  0  0  0  0
    5.2824   -4.6841    0.0000 C   0  0  0  0  0  0  0  0  0  0  0  0
    2.4109   -4.6910    0.0000 C   0  0  0  0  0  0  0  0  0  0  0  0
    6.7095   -3.8568    0.0000 C   0  0  0  0  0  0  0  0  0  0  0  0
    5.9924   -2.6193    0.0000 C   0  0  0  0  0  0  0  0  0  0  0  0
    7.4232   -3.4432    0.0000 C   0  0  0  0  0  0  0  0  0  0  0  0
    8.1367   -3.8568    0.0000 C   0  0  0  0  0  0  0  0  0  0  0  0
    7.4196   -2.6193    0.0000 C   0  0  0  0  0  0  0  0  0  0  0  0
    8.8501   -3.4432    0.0000 C   0  0  0  0  0  0  0  0  0  0  0  0
    8.1332   -2.2056    0.0000 C   0  0  0  0  0  0  0  0  0  0  0  0
    8.8467   -2.6193    0.0000 C   0  0  0  0  0  0  0  0  0  0  0  0
  1  2  1  0  0  0  0
  1  3  1  0  0  0  0
  1  4  2  0  0  0  0
  2  5  1  0  0  0  0
  3  6  2  0  0  0  0
  4  7  1  0  0  0  0
  5  8  1  0  0  0  0
  5  9  1  1  0  0  0
  6 10  1  0  0  0  0
  8 11  1  0  0  0  0
  8 12  1  0  0  0  0
 11 13  1  0  0  0  0
 13 14  2  0  0  0  0
 13 15  1  0  0  0  0
 14 16  1  0  0  0  0
 15 17  2  0  0  0  0
 16 18  2  0  0  0  0
  7 10  2  0  0  0  0
 17 18  1  0  0  0  0
M  END
> <DATABASE_ID>
DB00865

> <DATABASE_NAME>
drugbank

> <SMILES>
C[C@@H](CC1=CC=CC=C1)N(C)CC1=CC=CC=C1

> <INCHI_IDENTIFIER>
InChI=1S/C17H21N/c1-15(13-16-9-5-3-6-10-16)18(2)14-17-11-7-4-8-12-17/h3-12,15H,13-14H2,1-2H3/t15-/m0/s1

> <INCHI_KEY>
YXKTVDFXDRQTKV-HNNXBMFYSA-N

> <FORMULA>
C17H21N

> <MOLECULAR_WEIGHT>
239.3553

> <EXACT_MASS>
239.167399677

> <JCHEM_ACCEPTOR_COUNT>
1

> <JCHEM_AVERAGE_POLARIZABILITY>
29.029218498272606

> <JCHEM_BIOAVAILABILITY>
1

> <JCHEM_DONOR_COUNT>
0

> <JCHEM_FORMAL_CHARGE>
0

> <JCHEM_GHOSE_FILTER>
1

> <JCHEM_IUPAC>
benzyl(methyl)[(2S)-1-phenylpropan-2-yl]amine

> <ALOGPS_LOGP>
3.72

> <JCHEM_LOGP>
4.34435193

> <ALOGPS_LOGS>
-4.01

> <JCHEM_MDDR_LIKE_RULE>
0

> <JCHEM_NUMBER_OF_RINGS>
2

> <JCHEM_PHYSIOLOGICAL_CHARGE>
1

> <JCHEM_PKA_STRONGEST_BASIC>
9.804145366577789

> <JCHEM_POLAR_SURFACE_AREA>
3.24

> <JCHEM_REFRACTIVITY>
78.38710000000002

> <JCHEM_ROTATABLE_BOND_COUNT>
5

> <JCHEM_RULE_OF_FIVE>
1

> <ALOGPS_SOLUBILITY>
2.33e-02 g/l

> <JCHEM_TRADITIONAL_IUPAC>
benzphetamine

> <JCHEM_VEBER_RULE>
1

> <DRUGBANK_ID>
DB00865

> <SECONDARY_ACCESSION_NUMBERS>
APRD00759

> <DRUG_GROUPS>
approved; illicit

> <GENERIC_NAME>
Benzphetamine

> <SYNONYMS>
(+)-benzphetamine; (+)-N-benzyl-N,α-dimethylphenethylamine; (+)-N,α-dimethyl-N-(phenylmethyl)-benzeneethanamine; (S)-(+)-benzphetamine; (S)-(+)-N-benzyl-N,α-dimethylphenethylamine; (S)-benzphetamine; (αS)-N,α-dimethylphenethylamine; Benzaphetamine; Benzfetamina; Benzfetamine; Benzfetaminum; Benzphetamine; Benzylamphetamine; d-N-methyl-N-benzyl-β-phenylisopropylamine; N-methyl-1-phenyl-N-(phenylmethyl)propan-2-amine

> <PRODUCTS>
Benzphetamine; Benzphetamine Hydrochloride; Didrex; Recede; Regimex

> <SALTS>
Benzphetamine hydrochloride

$$$$

  Mrv0541 04191212152D          

 24 26  0  0  0  0            999 V2000
   -0.6312    0.1434    0.0000 C   0  0  0  0  0  0  0  0  0  0  0  0
    0.1937    0.1434    0.0000 C   0  0  0  0  0  0  0  0  0  0  0  0
    0.5245    1.5927    0.0000 C   0  0  0  0  0  0  0  0  0  0  0  0
   -0.2250    0.5897    0.0000 N   0  0  0  0  0  0  0  0  0  0  0  0
   -0.2250    1.4147    0.0000 C   0  0  0  0  0  0  0  0  0  0  0  0
   -0.2187    1.9507    0.0000 C   0  0  1  0  0  0  0  0  0  0  0  0
   -0.9620    1.5927    0.0000 C   0  0  2  0  0  0  0  0  0  0  0  0
   -1.6765    2.8302    0.0000 O   0  0  0  0  0  0  0  0  0  0  0  0
   -1.6765    2.0052    0.0000 C   0  0  0  0  0  0  0  0  0  0  0  0
   -2.3910    1.5927    0.0000 O   0  0  0  0  0  0  0  0  0  0  0  0
   -3.1055    2.0052    0.0000 C   0  0  0  0  0  0  0  0  0  0  0  0
   -0.2187    2.7757    0.0000 O   0  0  0  0  0  0  0  0  0  0  0  0
    0.4957    4.0132    0.0000 O   0  0  0  0  0  0  0  0  0  0  0  0
    0.4957    3.1882    0.0000 C   0  0  0  0  0  0  0  0  0  0  0  0
    1.2102    2.7757    0.0000 C   0  0  0  0  0  0  0  0  0  0  0  0
    1.9247    1.5382    0.0000 C   0  0  0  0  0  0  0  0  0  0  0  0
    2.6391    1.9507    0.0000 C   0  0  0  0  0  0  0  0  0  0  0  0
    2.6391    2.7757    0.0000 C   0  0  0  0  0  0  0  0  0  0  0  0
    1.9247    3.1882    0.0000 C   0  0  0  0  0  0  0  0  0  0  0  0
    1.2102    1.9507    0.0000 C   0  0  0  0  0  0  0  0  0  0  0  0
   -1.1456    0.7885    0.0000 C   0  0  1  0  0  0  0  0  0  0  0  0
   -1.9425    0.5750    0.0000 H   0  0  0  0  0  0  0  0  0  0  0  0
    0.7081    0.7885    0.0000 C   0  0  1  0  0  0  0  0  0  0  0  0
    1.5050    0.5750    0.0000 H   0  0  0  0  0  0  0  0  0  0  0  0
  6  7  1  0  0  0  0
  3  6  1  0  0  0  0
  7 21  1  0  0  0  0
 21  1  1  0  0  0  0
  1  2  1  0  0  0  0
  2 23  1  0  0  0  0
 23  3  1  0  0  0  0
 21  4  1  1  0  0  0
 23  4  1  1  0  0  0
  4  5  1  0  0  0  0
  6 12  1  1  0  0  0
  7  9  1  1  0  0  0
  9  8  2  0  0  0  0
  9 10  1  0  0  0  0
 10 11  1  0  0  0  0
 12 14  1  0  0  0  0
 14 13  2  0  0  0  0
 14 15  1  0  0  0  0
 19 15  2  0  0  0  0
 15 20  1  0  0  0  0
 16 17  1  0  0  0  0
 20 16  2  0  0  0  0
 17 18  2  0  0  0  0
 18 19  1  0  0  0  0
 21 22  1  1  0  0  0
 23 24  1  1  0  0  0
M  END
> <DATABASE_ID>
DB00907

> <DATABASE_NAME>
drugbank

> <SMILES>
[H][C@]12CC[C@]([H])([C@H]([C@H](C1)OC(=O)C1=CC=CC=C1)C(=O)OC)N2C

> <INCHI_IDENTIFIER>
InChI=1S/C17H21NO4/c1-18-12-8-9-13(18)15(17(20)21-2)14(10-12)22-16(19)11-6-4-3-5-7-11/h3-7,12-15H,8-10H2,1-2H3/t12-,13+,14-,15+/m0/s1

> <INCHI_KEY>
ZPUCINDJVBIVPJ-LJISPDSOSA-N

> <FORMULA>
C17H21NO4

> <MOLECULAR_WEIGHT>
303.3529

> <EXACT_MASS>
303.147058165

> <JCHEM_ACCEPTOR_COUNT>
3

> <JCHEM_AVERAGE_POLARIZABILITY>
32.36274815445442

> <JCHEM_BIOAVAILABILITY>
1

> <JCHEM_DONOR_COUNT>
0

> <JCHEM_FORMAL_CHARGE>
0

> <JCHEM_GHOSE_FILTER>
1

> <JCHEM_IUPAC>
methyl (1R,2R,3S,5S)-3-(benzoyloxy)-8-methyl-8-azabicyclo[3.2.1]octane-2-carboxylate

> <ALOGPS_LOGP>
1.97

> <JCHEM_LOGP>
2.2821080089999994

> <ALOGPS_LOGS>
-1.78

> <JCHEM_MDDR_LIKE_RULE>
0

> <JCHEM_NUMBER_OF_RINGS>
3

> <JCHEM_PHYSIOLOGICAL_CHARGE>
1

> <JCHEM_PKA_STRONGEST_BASIC>
8.845774190899235

> <JCHEM_POLAR_SURFACE_AREA>
55.84

> <JCHEM_REFRACTIVITY>
81.16040000000001

> <JCHEM_ROTATABLE_BOND_COUNT>
5

> <JCHEM_RULE_OF_FIVE>
1

> <ALOGPS_SOLUBILITY>
5.03e+00 g/l

> <JCHEM_TRADITIONAL_IUPAC>
cocaine

> <JCHEM_VEBER_RULE>
0

> <DRUGBANK_ID>
DB00907

> <SECONDARY_ACCESSION_NUMBERS>
APRD00080

> <DRUG_GROUPS>
approved; illicit

> <GENERIC_NAME>
Cocaine

> <SYNONYMS>
(-)-Cocaine; (−)-cocaine; [1R-(exo,exo)]-3-(benzoyloxy)-8-methyl-8-azabicyclo[3.2.1]octane-2-carboxylic acid, methyl ester; 2-methyl-3β-hydroxy-1αH,5αH-tropane-2β-carboxylate benzoate (ester); Benzoylmethylecgonine; beta-Cocain; Cocain; Cocaina; Cocainum; Kokain; L-Cocain; L-Cocaine; methyl [1R-(exo,exo)]-3-(benzoyloxy)-8-methyl-8-azabicyclo[3.2.1]octane-2-carboxylate; Methyl benzoylecgonine; Neurocaine

> <PRODUCTS>
Cocaine Hydrochloride; Cocaine Hydrochloride Nasal; Cocaine Hydrochloride Top Sol 40mg/ml; Cocaine Hydrochloride Topical Sol 10%; Goprelto; Numbrino; PMS-cocaine Hydrochloride Topical Sol 10%; PMS-cocaine Hydrochloride Topical Sol 4%

> <SALTS>
Cocaine hydrochloride

$$$$

  Mrv1902 02061921222D          

 26 28  0  0  0  0            999 V2000
   -0.7557    0.6468    0.0000 C   0  0  0  0  0  0  0  0  0  0  0  0
   -0.7557   -1.0033    0.0000 N   0  0  0  0  0  0  0  0  0  0  0  0
   -0.0412    0.2342    0.0000 C   0  0  0  0  0  0  0  0  0  0  0  0
   -1.4703    0.2342    0.0000 C   0  0  0  0  0  0  0  0  0  0  0  0
   -0.0412   -0.5908    0.0000 C   0  0  0  0  0  0  0  0  0  0  0  0
   -1.4703   -0.5908    0.0000 C   0  0  0  0  0  0  0  0  0  0  0  0
   -0.7573   -1.8191    0.0000 C   0  0  0  0  0  0  0  0  0  0  0  0
    2.1015   -0.9958    0.0000 C   0  0  0  0  0  0  0  0  0  0  0  0
    0.6718   -1.8200    0.0000 C   0  0  0  0  0  0  0  0  0  0  0  0
    2.8163   -0.5837    0.0000 N   0  0  0  0  0  0  0  0  0  0  0  0
   -0.0429   -2.2322    0.0000 C   0  0  0  0  0  0  0  0  0  0  0  0
    2.1010   -1.8209    0.0000 C   0  0  0  0  0  0  0  0  0  0  0  0
    1.3872   -0.5828    0.0000 C   0  0  0  0  0  0  0  0  0  0  0  0
    1.3861   -2.2331    0.0000 C   0  0  0  0  0  0  0  0  0  0  0  0
    0.6724   -0.9949    0.0000 C   0  0  0  0  0  0  0  0  0  0  0  0
   -0.0688    1.8365    0.0000 O   0  0  0  0  0  0  0  0  0  0  0  0
   -0.0688    1.0433    0.0000 C   0  0  0  0  0  0  0  0  0  0  0  0
   -1.4426    1.8365    0.0000 C   0  0  0  0  0  0  0  0  0  0  0  0
   -1.4426    1.0433    0.0000 C   0  0  0  0  0  0  0  0  0  0  0  0
   -2.1295    2.2331    0.0000 C   0  0  0  0  0  0  0  0  0  0  0  0
   -2.8163    1.8364    0.0000 C   0  0  0  0  0  0  0  0  0  0  0  0
   -2.1295    0.6468    0.0000 C   0  0  0  0  0  0  0  0  0  0  0  0
   -2.8163    1.0433    0.0000 C   0  0  0  0  0  0  0  0  0  0  0  0
    0.6180    0.6468    0.0000 O   0  0  0  0  0  0  0  0  0  0  0  0
    1.3049    1.0433    0.0000 C   0  0  0  0  0  0  0  0  0  0  0  0
    1.9917    0.6467    0.0000 C   0  0  0  0  0  0  0  0  0  0  0  0
  3  1  1  0  0  0  0
  4  1  1  0  0  0  0
  6  2  1  0  0  0  0
  7  2  1  0  0  0  0
  5  2  1  0  0  0  0
  5  3  1  0  0  0  0
  6  4  1  0  0  0  0
 11  7  1  0  0  0  0
 13  8  1  0  0  0  0
 10  8  1  0  0  0  0
 12  8  2  0  0  0  0
 11  9  1  0  0  0  0
 14  9  2  0  0  0  0
 15  9  1  0  0  0  0
 14 12  1  0  0  0  0
 15 13  2  0  0  0  0
 17 16  2  0  0  0  0
  1 17  1  0  0  0  0
 19  1  1  0  0  0  0
 20 18  1  0  0  0  0
 19 18  2  0  0  0  0
 21 20  2  0  0  0  0
 22 19  1  0  0  0  0
 23 21  1  0  0  0  0
 23 22  2  0  0  0  0
 17 24  1  0  0  0  0
 24 25  1  0  0  0  0
 25 26  1  0  0  0  0
M  END
> <DATABASE_ID>
DB00913

> <DATABASE_NAME>
drugbank

> <SMILES>
CCOC(=O)C1(CCN(CCC2=CC=C(N)C=C2)CC1)C1=CC=CC=C1

> <INCHI_IDENTIFIER>
InChI=1S/C22H28N2O2/c1-2-26-21(25)22(19-6-4-3-5-7-19)13-16-24(17-14-22)15-12-18-8-10-20(23)11-9-18/h3-11H,2,12-17,23H2,1H3

> <INCHI_KEY>
LKYQLAWMNBFNJT-UHFFFAOYSA-N

> <FORMULA>
C22H28N2O2

> <MOLECULAR_WEIGHT>
352.4699

> <EXACT_MASS>
352.21507815

> <JCHEM_ACCEPTOR_COUNT>
3

> <JCHEM_ATOM_COUNT>
54

> <JCHEM_AVERAGE_POLARIZABILITY>
40.98114828100659

> <JCHEM_BIOAVAILABILITY>
1

> <JCHEM_DONOR_COUNT>
1

> <JCHEM_FORMAL_CHARGE>
0

> <JCHEM_GHOSE_FILTER>
1

> <JCHEM_IUPAC>
ethyl 1-[2-(4-aminophenyl)ethyl]-4-phenylpiperidine-4-carboxylate

> <ALOGPS_LOGP>
4.05

> <JCHEM_LOGP>
3.6400087643333334

> <ALOGPS_LOGS>
-4.46

> <JCHEM_MDDR_LIKE_RULE>
1

> <JCHEM_NUMBER_OF_RINGS>
3

> <JCHEM_PHYSIOLOGICAL_CHARGE>
1

> <JCHEM_PKA_STRONGEST_BASIC>
8.877914258147797

> <JCHEM_POLAR_SURFACE_AREA>
55.56

> <JCHEM_REFRACTIVITY>
106.55170000000001

> <JCHEM_ROTATABLE_BOND_COUNT>
7

> <JCHEM_RULE_OF_FIVE>
1

> <ALOGPS_SOLUBILITY>
1.24e-02 g/l

> <JCHEM_TRADITIONAL_IUPAC>
paricalcitol

> <JCHEM_VEBER_RULE>
0

> <DRUGBANK_ID>
DB00913

> <SECONDARY_ACCESSION_NUMBERS>
APRD00741

> <DRUG_GROUPS>
approved; illicit

> <GENERIC_NAME>
Anileridine

> <SYNONYMS>
1-[2-(4-aminophenyl)ethyl]-4-phenyl-4-piperidinecarboxlic acid ethyl ester; Anileridina; Anileridine; Anileridinum; ethyl 1-(2-(4-aminophenyl)ethyl)-4-phenyl-4-piperidinecarboxylate; ethyl 1-(4-aminophenethyl)-4-phenylisonipecotate; ethyl 1-(p-aminophenethyl)-4-phenylisonipecotate; N-(β-(p-aminophenyl)ethyl)-4-phenyl-4-carbethoxypiperidine; N-β-(p-aminophenyl)ethylnormeperidine

> <PRODUCTS>
Leritine Inj 25mg/ml; Leritine Tablets 25mg

> <INTERNATIONAL_BRANDS>
Apodol; Leritine

> <SALTS>
Anileridine hydrochloride; Anileridine phosphate

$$$$
644073
  Mrv0541 02231215062D          

 34 40  0  0  1  0            999 V2000
    4.3078   -2.2511    0.0000 O   0  0  0  0  0  0  0  0  0  0  0  0
    6.3944   -2.4225    0.0000 O   0  0  0  0  0  0  0  0  0  0  0  0
    7.2344   -0.1130    0.0000 O   0  0  0  0  0  0  0  0  0  0  0  0
    2.2396   -2.4225    0.0000 O   0  0  0  0  0  0  0  0  0  0  0  0
    5.1420    1.1756    0.0000 N   0  0  0  0  0  0  0  0  0  0  0  0
    5.1420   -0.2533    0.0000 C   0  0  2  0  0  0  0  0  0  0  0  0
    4.7295   -0.9678    0.0000 C   0  0  1  0  0  0  0  0  0  0  0  0
    5.9670   -1.6823    0.0000 C   0  0  1  0  0  0  0  0  0  0  0  0
    5.1420   -1.6823    0.0000 C   0  0  2  0  0  0  0  0  0  0  0  0
    6.3796   -0.9678    0.0000 C   0  0  2  0  0  0  0  0  0  0  0  0
    5.9670   -0.2533    0.0000 C   0  0  0  0  0  0  0  0  0  0  0  0
    4.7295    0.4612    0.0000 C   0  0  1  0  0  0  0  0  0  0  0  0
    5.7378   -0.6378    0.0000 C   0  0  0  0  0  0  0  0  0  0  0  0
    5.4262   -1.2611    0.0000 C   0  0  0  0  0  0  0  0  0  0  0  0
    4.3171   -0.2533    0.0000 C   0  0  0  0  0  0  0  0  0  0  0  0
    3.9045   -0.9678    0.0000 C   0  0  0  0  0  0  0  0  0  0  0  0
    3.9045    0.4612    0.0000 C   0  0  0  0  0  0  0  0  0  0  0  0
    7.2344   -0.9678    0.0000 C   0  0  1  0  0  0  0  0  0  0  0  0
    4.3078    1.3238    0.0000 C   0  0  0  0  0  0  0  0  0  0  0  0
    3.4920   -0.2533    0.0000 C   0  0  0  0  0  0  0  0  0  0  0  0
    3.4920   -1.6823    0.0000 C   0  0  0  0  0  0  0  0  0  0  0  0
    5.9170    1.5364    0.0000 C   0  0  0  0  0  0  0  0  0  0  0  0
    8.0892   -0.9678    0.0000 C   0  0  0  0  0  0  0  0  0  0  0  0
    5.9921    2.3878    0.0000 C   0  0  0  0  0  0  0  0  0  0  0  0
    7.2344   -1.8226    0.0000 C   0  0  0  0  0  0  0  0  0  0  0  0
    2.6670   -0.2533    0.0000 C   0  0  0  0  0  0  0  0  0  0  0  0
    2.6670   -1.6823    0.0000 C   0  0  0  0  0  0  0  0  0  0  0  0
    5.6313    3.1628    0.0000 C   0  0  0  0  0  0  0  0  0  0  0  0
    6.4829    3.0878    0.0000 C   0  0  0  0  0  0  0  0  0  0  0  0
    5.9670   -3.1628    0.0000 C   0  0  0  0  0  0  0  0  0  0  0  0
    2.2545   -0.9678    0.0000 C   0  0  0  0  0  0  0  0  0  0  0  0
    8.9440   -0.9678    0.0000 C   0  0  0  0  0  0  0  0  0  0  0  0
    8.0892   -1.8226    0.0000 C   0  0  0  0  0  0  0  0  0  0  0  0
    8.0892   -0.1130    0.0000 C   0  0  0  0  0  0  0  0  0  0  0  0
  9  1  1  6  0  0  0
  1 21  1  0  0  0  0
  8  2  1  6  0  0  0
  2 30  1  0  0  0  0
 18  3  1  1  0  0  0
  4 27  1  0  0  0  0
 12  5  1  1  0  0  0
  5 19  1  0  0  0  0
  5 22  1  0  0  0  0
  6  7  1  0  0  0  0
  6 11  1  0  0  0  0
  6 12  1  0  0  0  0
  6 13  1  6  0  0  0
  7  9  1  0  0  0  0
  7 15  1  1  0  0  0
  7 16  1  0  0  0  0
  8  9  1  0  0  0  0
  8 10  1  0  0  0  0
  8 14  1  0  0  0  0
 10 11  1  0  0  0  0
 10 18  1  6  0  0  0
 12 17  1  0  0  0  0
 13 14  1  0  0  0  0
 15 19  1  0  0  0  0
 16 20  2  0  0  0  0
 16 21  1  0  0  0  0
 17 20  1  0  0  0  0
 18 23  1  0  0  0  0
 18 25  1  1  0  0  0
 20 26  1  0  0  0  0
 21 27  2  0  0  0  0
 22 24  1  0  0  0  0
 23 32  1  0  0  0  0
 23 33  1  0  0  0  0
 23 34  1  0  0  0  0
 24 28  1  0  0  0  0
 24 29  1  0  0  0  0
 26 31  2  0  0  0  0
 27 31  1  0  0  0  0
 28 29  1  0  0  0  0
M  END
> <DATABASE_ID>
DB00921

> <DATABASE_NAME>
drugbank

> <SMILES>
CO[C@]12CC[C@@]3(C[C@@H]1[C@](C)(O)C(C)(C)C)[C@H]1CC4=C5C(O[C@@H]2[C@@]35CCN1CC1CC1)=C(O)C=C4

> <INCHI_IDENTIFIER>
InChI=1S/C29H41NO4/c1-25(2,3)26(4,32)20-15-27-10-11-29(20,33-5)24-28(27)12-13-30(16-17-6-7-17)21(27)14-18-8-9-19(31)23(34-24)22(18)28/h8-9,17,20-21,24,31-32H,6-7,10-16H2,1-5H3/t20-,21-,24-,26+,27-,28+,29-/m1/s1

> <INCHI_KEY>
RMRJXGBAOAMLHD-IHFGGWKQSA-N

> <FORMULA>
C29H41NO4

> <MOLECULAR_WEIGHT>
467.6401

> <EXACT_MASS>
467.303558805

> <JCHEM_ACCEPTOR_COUNT>
5

> <JCHEM_AVERAGE_POLARIZABILITY>
53.11389565315854

> <JCHEM_BIOAVAILABILITY>
1

> <JCHEM_DONOR_COUNT>
2

> <JCHEM_FORMAL_CHARGE>
0

> <JCHEM_GHOSE_FILTER>
0

> <JCHEM_IUPAC>
(1S,2R,6S,14R,15R,16R)-3-(cyclopropylmethyl)-16-[(2S)-2-hydroxy-3,3-dimethylbutan-2-yl]-15-methoxy-13-oxa-3-azahexacyclo[13.2.2.1²,⁸.0¹,⁶.0⁶,¹⁴.0⁷,¹²]icosa-7,9,11-trien-11-ol

> <ALOGPS_LOGP>
4.53

> <JCHEM_LOGP>
3.5498807580676903

> <ALOGPS_LOGS>
-4.44

> <JCHEM_MDDR_LIKE_RULE>
0

> <JCHEM_NUMBER_OF_RINGS>
7

> <JCHEM_PHYSIOLOGICAL_CHARGE>
1

> <JCHEM_PKA>
14.298024374194792

> <JCHEM_PKA_STRONGEST_ACIDIC>
7.503441933795022

> <JCHEM_PKA_STRONGEST_BASIC>
12.535459044638307

> <JCHEM_POLAR_SURFACE_AREA>
62.160000000000004

> <JCHEM_REFRACTIVITY>
131.7623

> <JCHEM_ROTATABLE_BOND_COUNT>
5

> <JCHEM_RULE_OF_FIVE>
1

> <ALOGPS_SOLUBILITY>
1.68e-02 g/l

> <JCHEM_TRADITIONAL_IUPAC>
buprenorphine

> <JCHEM_VEBER_RULE>
0

> <DRUGBANK_ID>
DB00921

> <SECONDARY_ACCESSION_NUMBERS>
APRD00670

> <DRUG_GROUPS>
approved; illicit; investigational; vet_approved

> <GENERIC_NAME>
Buprenorphine

> <SYNONYMS>
(−)-buprenorphine; 17-cyclopropylmethyl-4,5α-epoxy-7α-((S)-1-hydroxy-1,2,2-trimethylpropyl)-6-methoxy-6,14-endo-ethanomorphinan-3-ol; 2-(N-cyclopropylmethyl-4,5α-epoxy-3-hydroxy-6-methoxy-6,14-endo-ethanomorphinan-6α-yl)-3,3-dimethyl-2-butanol; 2-[3-cyclopropylmethyl-11-hydroxy-15-methoxy-(14R)-13-oxa-3-azahexacyclo[13.2.2.12,8.01,6.06,14.07,12]icosa-7,9,11-trien-16-yl]-3,3-dimethyl-2-butanol; 21-cyclopropyl-7α-[(S)-1-hydroxy-1,2,2-trimethylpropyl]-6,14-endo-ethano-6,7,8,14-tetrahydrooripavine; Buprenophine; Buprenorfina; Buprenorphine; Buprenorphinum

> <PRODUCTS>
Act Buprenorphine/naloxone; Bar-buprenorphine; Belbuca; Bunavail; Buprenex; Buprenorphine; Buprenorphine HCl; Buprenorphine HCl Sl; Buprenorphine HCl and Naloxone HCl; Buprenorphine Hydrochloride; Buprenorphine Hydrochloride Sublingual; Buprenorphine Hydrochloride and Naloxone Hydrochloride Dihydrate; Buprenorphine and Naloxone; Buprenorphine and Naloxone Sublingual Film; Buprenorphine hydrochloride; Butrans; Butrans 10; Butrans 15; Butrans 20; Butrans 5; Mylan-buprenorphine/naloxone; PMS-buprenorphine-naloxone; Probuphine; Sixmo; Sublocade; Suboxone; Subutex; Zubsolv

> <INTERNATIONAL_BRANDS>
Addnok; Buprel; Buprigesic; Morgesic; Norphin; Norspan; Temgesic; Tidigesic

> <SALTS>
Buprenorphine hydrochloride

$$$$
937
  Mrv0541 02231215072D          

 15 15  0  0  1  0            999 V2000
    1.6500    0.4125    0.0000 O   0  0  0  0  0  0  0  0  0  0  0  0
    3.0790    1.2375    0.0000 N   0  0  0  0  0  0  0  0  0  0  0  0
    3.0790    0.4125    0.0000 C   0  0  0  0  0  0  0  0  0  0  0  0
    3.7934    1.6500    0.0000 C   0  0  0  0  0  0  0  0  0  0  0  0
    2.3644    1.6500    0.0000 C   0  0  0  0  0  0  0  0  0  0  0  0
    2.3644    0.0000    0.0000 C   0  0  0  0  0  0  0  0  0  0  0  0
    3.7934    0.0000    0.0000 C   0  0  0  0  0  0  0  0  0  0  0  0
    3.7934    2.4750    0.0000 C   0  0  0  0  0  0  0  0  0  0  0  0
    2.3644    2.4750    0.0000 C   0  0  0  0  0  0  0  0  0  0  0  0
    2.3644   -0.8250    0.0000 C   0  0  0  0  0  0  0  0  0  0  0  0
    3.0790   -1.2375    0.0000 C   0  0  0  0  0  0  0  0  0  0  0  0
    1.6500   -1.2375    0.0000 C   0  0  0  0  0  0  0  0  0  0  0  0
    3.0790   -2.0625    0.0000 C   0  0  0  0  0  0  0  0  0  0  0  0
    1.6500   -2.0625    0.0000 C   0  0  0  0  0  0  0  0  0  0  0  0
    2.3644   -2.4750    0.0000 C   0  0  0  0  0  0  0  0  0  0  0  0
  1  6  2  0  0  0  0
  2  3  1  0  0  0  0
  2  4  1  0  0  0  0
  2  5  1  0  0  0  0
  3  6  1  0  0  0  0
  3  7  1  0  0  0  0
  4  8  1  0  0  0  0
  5  9  1  0  0  0  0
  6 10  1  0  0  0  0
 10 11  2  0  0  0  0
 10 12  1  0  0  0  0
 11 13  1  0  0  0  0
 12 14  2  0  0  0  0
 13 15  2  0  0  0  0
 14 15  1  0  0  0  0
M  END
> <DATABASE_ID>
DB00937

> <DATABASE_NAME>
drugbank

> <SMILES>
CCN(CC)C(C)C(=O)C1=CC=CC=C1

> <INCHI_IDENTIFIER>
InChI=1S/C13H19NO/c1-4-14(5-2)11(3)13(15)12-9-7-6-8-10-12/h6-11H,4-5H2,1-3H3

> <INCHI_KEY>
XXEPPPIWZFICOJ-UHFFFAOYSA-N

> <FORMULA>
C13H19NO

> <MOLECULAR_WEIGHT>
205.2961

> <EXACT_MASS>
205.146664235

> <JCHEM_ACCEPTOR_COUNT>
2

> <JCHEM_AVERAGE_POLARIZABILITY>
24.124410458659263

> <JCHEM_BIOAVAILABILITY>
1

> <JCHEM_DONOR_COUNT>
0

> <JCHEM_FORMAL_CHARGE>
0

> <JCHEM_GHOSE_FILTER>
1

> <JCHEM_IUPAC>
2-(diethylamino)-1-phenylpropan-1-one

> <ALOGPS_LOGP>
2.80

> <JCHEM_LOGP>
2.7047719746666665

> <ALOGPS_LOGS>
-2.23

> <JCHEM_MDDR_LIKE_RULE>
0

> <JCHEM_NUMBER_OF_RINGS>
1

> <JCHEM_PHYSIOLOGICAL_CHARGE>
1

> <JCHEM_PKA_STRONGEST_ACIDIC>
17.427207749681955

> <JCHEM_PKA_STRONGEST_BASIC>
7.441676162944761

> <JCHEM_POLAR_SURFACE_AREA>
20.310000000000002

> <JCHEM_REFRACTIVITY>
63.880900000000025

> <JCHEM_ROTATABLE_BOND_COUNT>
5

> <JCHEM_RULE_OF_FIVE>
1

> <ALOGPS_SOLUBILITY>
1.22e+00 g/l

> <JCHEM_TRADITIONAL_IUPAC>
diethylpropion

> <JCHEM_VEBER_RULE>
1

> <DRUGBANK_ID>
DB00937

> <SECONDARY_ACCESSION_NUMBERS>
APRD00919

> <DRUG_GROUPS>
approved; illicit

> <GENERIC_NAME>
Diethylpropion

> <SYNONYMS>
(±)-diethylpropion; 1-phenyl-2-diethylamino-1-propanone; 2-(diethylamino)-1-phenyl-1-propanone; 2-(diethylamino)propiophenone; alpha-Benzoyltriethylamine; alpha-Diethylaminopropiophenone; Amfepramone; Amfépramone; Amfepramonum; Anfepramona; Diethylcathinone

> <PRODUCTS>
Diethylpropion HCl Controlled-Release; Diethylpropion HCl Immediate-Release; Diethylpropion Hydrochloride; Diethylpropion Hydrochloride Controlled-Release; Diethylpropion Hydrochloride ER; Diethylpropion HydrochlorideER ER; Nobesine 75 Sustained Release Capsule 75mg; Tenuate; Tenuate Dospan; Tepanil

> <INTERNATIONAL_BRANDS>
Anorex; Dobesin; Frekentine; Linea; Moderatan; Neobes; Nobesine; Prefamone; Regenon; Tylinal

> <SALTS>
Diethylpropion hydrochloride

$$$$
956
  Mrv0541 02231215082D          

 25 29  0  0  1  0            999 V2000
    1.9356   -0.3879    0.0000 O   0  0  0  0  0  0  0  0  0  0  0  0
    1.7349   -2.5175    0.0000 O   0  0  0  0  0  0  0  0  0  0  0  0
    1.7349    1.6501    0.0000 O   0  0  0  0  0  0  0  0  0  0  0  0
    5.3440   -1.2588    0.0000 N   0  0  0  0  0  0  0  0  0  0  0  0
    3.2006   -0.8462    0.0000 C   0  0  1  0  0  0  0  0  0  0  0  0
    3.9151   -1.2588    0.0000 C   0  0  2  0  0  0  0  0  0  0  0  0
    4.6296   -0.8462    0.0000 C   0  0  1  0  0  0  0  0  0  0  0  0
    2.4861   -1.2588    0.0000 C   0  0  2  0  0  0  0  0  0  0  0  0
    3.6773   -0.2412    0.0000 C   0  0  0  0  0  0  0  0  0  0  0  0
    3.2006   -0.0213    0.0000 C   0  0  0  0  0  0  0  0  0  0  0  0
    3.9151   -2.0838    0.0000 C   0  0  0  0  0  0  0  0  0  0  0  0
    4.6296   -0.0213    0.0000 C   0  0  0  0  0  0  0  0  0  0  0  0
    4.8506   -0.2412    0.0000 C   0  0  0  0  0  0  0  0  0  0  0  0
    3.9151    0.3913    0.0000 C   0  0  0  0  0  0  0  0  0  0  0  0
    3.2006   -2.4963    0.0000 C   0  0  0  0  0  0  0  0  0  0  0  0
    2.4861   -2.0838    0.0000 C   0  0  0  0  0  0  0  0  0  0  0  0
    2.4861    0.3913    0.0000 C   0  0  0  0  0  0  0  0  0  0  0  0
    5.9350   -1.8938    0.0000 C   0  0  0  0  0  0  0  0  0  0  0  0
    3.9151    1.2163    0.0000 C   0  0  0  0  0  0  0  0  0  0  0  0
    2.4861    1.2163    0.0000 C   0  0  0  0  0  0  0  0  0  0  0  0
    3.2006    1.6288    0.0000 C   0  0  0  0  0  0  0  0  0  0  0  0
    1.7349    2.5175    0.0000 C   0  0  0  0  0  0  0  0  0  0  0  0
    4.3612   -1.7903    0.0000 H   0  0  0  0  0  0  0  0  0  0  0  0
    4.8675   -1.4982    0.0000 H   0  0  0  0  0  0  0  0  0  0  0  0
    1.8196   -1.4518    0.0000 H   0  0  0  0  0  0  0  0  0  0  0  0
  1  8  1  0  0  0  0
  1 17  1  0  0  0  0
  2 16  2  0  0  0  0
  3 20  1  0  0  0  0
  3 22  1  0  0  0  0
  4  7  1  0  0  0  0
  4 13  1  0  0  0  0
  4 18  1  0  0  0  0
  5  6  1  0  0  0  0
  5  8  1  0  0  0  0
  5  9  1  1  0  0  0
  5 10  1  0  0  0  0
  6  7  1  0  0  0  0
  6 11  1  0  0  0  0
  6 23  1  1  0  0  0
  7 12  1  0  0  0  0
  7 24  1  6  0  0  0
  8 16  1  0  0  0  0
  8 25  1  1  0  0  0
  9 13  1  0  0  0  0
 10 14  2  0  0  0  0
 10 17  1  0  0  0  0
 11 15  1  0  0  0  0
 12 14  1  0  0  0  0
 14 19  1  0  0  0  0
 15 16  1  0  0  0  0
 17 20  2  0  0  0  0
 19 21  2  0  0  0  0
 20 21  1  0  0  0  0
M  END
> <DATABASE_ID>
DB00956

> <DATABASE_NAME>
drugbank

> <SMILES>
[H][C@@]12OC3=C(OC)C=CC4=C3[C@@]11CCN(C)[C@]([H])(C4)[C@]1([H])CCC2=O

> <INCHI_IDENTIFIER>
InChI=1S/C18H21NO3/c1-19-8-7-18-11-4-5-13(20)17(18)22-16-14(21-2)6-3-10(15(16)18)9-12(11)19/h3,6,11-12,17H,4-5,7-9H2,1-2H3/t11-,12+,17-,18-/m0/s1

> <INCHI_KEY>
LLPOLZWFYMWNKH-CMKMFDCUSA-N

> <FORMULA>
C18H21NO3

> <MOLECULAR_WEIGHT>
299.3642

> <EXACT_MASS>
299.152143543

> <JCHEM_ACCEPTOR_COUNT>
4

> <JCHEM_AVERAGE_POLARIZABILITY>
32.049349966841675

> <JCHEM_BIOAVAILABILITY>
1

> <JCHEM_DONOR_COUNT>
0

> <JCHEM_FORMAL_CHARGE>
0

> <JCHEM_GHOSE_FILTER>
1

> <JCHEM_IUPAC>
(1S,5R,13R,17R)-10-methoxy-4-methyl-12-oxa-4-azapentacyclo[9.6.1.0¹,¹³.0⁵,¹⁷.0⁷,¹⁸]octadeca-7(18),8,10-trien-14-one

> <ALOGPS_LOGP>
2.13

> <JCHEM_LOGP>
1.9603039676666665

> <ALOGPS_LOGS>
-2.57

> <JCHEM_MDDR_LIKE_RULE>
0

> <JCHEM_NUMBER_OF_RINGS>
5

> <JCHEM_PHYSIOLOGICAL_CHARGE>
1

> <JCHEM_PKA_STRONGEST_ACIDIC>
18.002748689731906

> <JCHEM_PKA_STRONGEST_BASIC>
8.605500302826659

> <JCHEM_POLAR_SURFACE_AREA>
38.77

> <JCHEM_REFRACTIVITY>
82.74470000000002

> <JCHEM_ROTATABLE_BOND_COUNT>
1

> <JCHEM_RULE_OF_FIVE>
1

> <ALOGPS_SOLUBILITY>
7.97e-01 g/l

> <JCHEM_TRADITIONAL_IUPAC>
hydrocodone

> <JCHEM_VEBER_RULE>
1

> <DRUGBANK_ID>
DB00956

> <SECONDARY_ACCESSION_NUMBERS>
APRD00591; DB09475

> <DRUG_GROUPS>
approved; illicit; investigational

> <GENERIC_NAME>
Hydrocodone

> <SYNONYMS>
(-)-Dihydrocodeinone; 4,5-alpha-Epoxy-3-methoxy-17-methylmorphinan-6-one; Dihydrocodeinone; Hidrocodona; Hydrocodon; Hydrocodone; Hydrocodonum; Hydrocone; Hydroconum; Idrocodone

> <PRODUCTS>
Antitussive hydrocodone bitartrate and homatropine methylbromide; Atuss HS Tannate; Caldomine Dh Adulte; Caldomine Dh Enfant; Co-gesic; Codofen; Coristine-DH Liq; Dalmacol; Dimetane Expectorant Dc; Dimetane Expectorant-DC Syr; Flowtuss; HYDROCODONE BITARTRATE and ACETAMINOPHEN; HyTan; Hycet; Hycodan; Hycodan Syrup; Hycodan Tablets; Hycofenix; Hycomine; Hycomine-S; Hydrocodone /apap; Hydrocodone Acetaminophen; Hydrocodone Bit/apap; Hydrocodone Bitartate and Acetaminophen; Hydrocodone Bitartrate; Hydrocodone Bitartrate And Acetaminophen; Hydrocodone Bitartrate Chlorpheniramine Maleate and Pseudoephedrine Hydrochloride; Hydrocodone Bitartrate and Acetaminophen; Hydrocodone Bitartrate and Acetaminophen Oral; Hydrocodone Bitartrate and Chlorpheniramine Maleate; Hydrocodone Bitartrate and Chlorpheniramine Maleate Solution; Hydrocodone Bitartrate and Guaifenesin; Hydrocodone Bitartrate and Homatropine Methylbromide; Hydrocodone Bitartrate and Ibuprofen; Hydrocodone Bitartrate and acetaminophen; Hydrocodone Bitartrate, Chlorpheniramine Maleate and Pseudoephedrine Hydrochloride; Hydrocodone Bitartrate, Chlorpheniramine Maleate, and Pseudoephedrine HCl; Hydrocodone Bitartrate, Chlorpheniramine Maleate, and Pseudoephedrine Hydrochloride Oral Solution; Hydrocodone Bitatrate and Acetaminophen; Hydrocodone Polistirex and Chlorpheniramine Polisitrex; Hydrocodone Polistirex and Chlorpheniramine Polistirex; Hydrocodone Polistirex and Chlorpheniramine Polistirex Extended-Release; Hydrocodone Polistirex and Chlorpheniramine Polistirex Pennkinetic; Hydrocodone Polistirex and Chlorpheniramine Polistirex extended-release; Hydrocodone bitartrate and acetaminophen; Hydrocodone bitartrate and ibuprofen; Hydrocodone bitartrate and pseudoephedrine hydrochloride solution; Hydrocodone/Guaifenesin; Hydrocodone/apap; Hydromet; Hyrdrocodone Apap; Hysingla ER; Ibucodone; Ibudone; Lorcet; Lorcet 10/650; Lorcet Hd; Lorcet Plus; Lortab; Lortab 10/325; Lortab 5/325; Lortab 7.5/325; Maxidone; Mercodol With Decapryn; Norco; Novahistex Dh; Novahistex Dh Expectorant; Novahistine Dh; Obredon; P-Tuss; Pancof HC; Pdp-hydrocodone; Ratio-calmydone; Ratio-coristex-DH; Reprexain; Rezira; Robidone 1mg/ml Syr; Robidone Syr 1mg/ml; Stagesic; Theracodophen-325; Theracodophen-650; Theracodophen-750; Theracodophen-Low-90; Topical Pain; Triaminic Expectorant Dh Syrup; Tussaminic Dh Forte Syrup; Tussaminic Dh Pediatric Syrup; TussiCaps; Tussicaps; Tussicaps Extended-release; Tussigon; Tussionex; Tussionex Pennkinetic; Tussionex Pennkinetic Extended-Release; Vantrela ER; Vasofrinic Dh; Vicodin; Vicodin ES; Vicodin HP; Vicodin Hp; Vicoprofen; Vituz; WellTuss HC; Xodol; Xodol 10/300; Xodol 5/300; Xodol 7.5/300; Xylon 10; Zamicet; Zohydro; Zohydro ER; Zolvit; Zutripro; Zydone; Zyfrel

> <SALTS>
Hydrocodone bitartrate; Hydrocodone hydrochloride; Hydrocodone polistirex

$$$$
962
  Mrv0541 02231215082D          

 23 25  0  0  0  0            999 V2000
    3.0791    3.3850    0.0000 O   0  0  0  0  0  0  0  0  0  0  0  0
    3.7935    2.1474    0.0000 N   0  0  0  0  0  0  0  0  0  0  0  0
    3.0791   -0.7401    0.0000 N   0  0  0  0  0  0  0  0  0  0  0  0
    3.8597   -0.4887    0.0000 N   0  0  0  0  0  0  0  0  0  0  0  0
    2.3645   -1.9777    0.0000 N   0  0  0  0  0  0  0  0  0  0  0  0
    4.3723   -3.3850    0.0000 N   0  0  0  0  0  0  0  0  0  0  0  0
    2.3645    0.4974    0.0000 C   0  0  0  0  0  0  0  0  0  0  0  0
    3.0791    1.7349    0.0000 C   0  0  0  0  0  0  0  0  0  0  0  0
    2.3645   -0.3276    0.0000 C   0  0  0  0  0  0  0  0  0  0  0  0
    3.0791    0.9099    0.0000 C   0  0  0  0  0  0  0  0  0  0  0  0
    4.5080    1.7349    0.0000 C   0  0  0  0  0  0  0  0  0  0  0  0
    1.6500    0.9099    0.0000 C   0  0  0  0  0  0  0  0  0  0  0  0
    2.3645    2.1474    0.0000 C   0  0  0  0  0  0  0  0  0  0  0  0
    3.0791   -1.5651    0.0000 C   0  0  0  0  0  0  0  0  0  0  0  0
    1.6500    1.7349    0.0000 C   0  0  0  0  0  0  0  0  0  0  0  0
    1.6500   -0.7401    0.0000 C   0  0  0  0  0  0  0  0  0  0  0  0
    3.7935    2.9725    0.0000 C   0  0  0  0  0  0  0  0  0  0  0  0
    5.2224    2.1474    0.0000 C   0  0  0  0  0  0  0  0  0  0  0  0
    3.8597   -1.8165    0.0000 C   0  0  0  0  0  0  0  0  0  0  0  0
    1.6500   -1.5651    0.0000 C   0  0  0  0  0  0  0  0  0  0  0  0
    4.3412   -1.1526    0.0000 C   0  0  0  0  0  0  0  0  0  0  0  0
    4.5080    3.3850    0.0000 C   0  0  0  0  0  0  0  0  0  0  0  0
    4.1159   -2.6008    0.0000 C   0  0  0  0  0  0  0  0  0  0  0  0
  1 17  2  0  0  0  0
  2  8  1  0  0  0  0
  2 11  1  0  0  0  0
  2 17  1  0  0  0  0
  3  4  1  0  0  0  0
  3  9  1  0  0  0  0
  3 14  1  0  0  0  0
  4 21  2  0  0  0  0
  5 14  1  0  0  0  0
  5 20  2  0  0  0  0
  6 23  3  0  0  0  0
  7  9  1  0  0  0  0
  7 10  2  0  0  0  0
  7 12  1  0  0  0  0
  8 10  1  0  0  0  0
  8 13  2  0  0  0  0
  9 16  2  0  0  0  0
 11 18  1  0  0  0  0
 12 15  2  0  0  0  0
 13 15  1  0  0  0  0
 14 19  2  0  0  0  0
 16 20  1  0  0  0  0
 17 22  1  0  0  0  0
 19 21  1  0  0  0  0
 19 23  1  0  0  0  0
M  END
> <DATABASE_ID>
DB00962

> <DATABASE_NAME>
drugbank

> <SMILES>
CCN(C(C)=O)C1=CC=CC(=C1)C1=CC=NC2=C(C=NN12)C#N

> <INCHI_IDENTIFIER>
InChI=1S/C17H15N5O/c1-3-21(12(2)23)15-6-4-5-13(9-15)16-7-8-19-17-14(10-18)11-20-22(16)17/h4-9,11H,3H2,1-2H3

> <INCHI_KEY>
HUNXMJYCHXQEGX-UHFFFAOYSA-N

> <FORMULA>
C17H15N5O

> <MOLECULAR_WEIGHT>
305.3339

> <EXACT_MASS>
305.127660127

> <JCHEM_ACCEPTOR_COUNT>
4

> <JCHEM_AVERAGE_POLARIZABILITY>
32.09341454372763

> <JCHEM_BIOAVAILABILITY>
1

> <JCHEM_DONOR_COUNT>
0

> <JCHEM_FORMAL_CHARGE>
0

> <JCHEM_GHOSE_FILTER>
1

> <JCHEM_IUPAC>
N-(3-{3-cyanopyrazolo[1,5-a]pyrimidin-7-yl}phenyl)-N-ethylacetamide

> <ALOGPS_LOGP>
2.00

> <JCHEM_LOGP>
1.5348796856666667

> <ALOGPS_LOGS>
-3.88

> <JCHEM_MDDR_LIKE_RULE>
0

> <JCHEM_NUMBER_OF_RINGS>
3

> <JCHEM_PHYSIOLOGICAL_CHARGE>
0

> <JCHEM_PKA_STRONGEST_BASIC>
0.3021576634174695

> <JCHEM_POLAR_SURFACE_AREA>
74.28999999999999

> <JCHEM_REFRACTIVITY>
97.23639999999999

> <JCHEM_ROTATABLE_BOND_COUNT>
3

> <JCHEM_RULE_OF_FIVE>
1

> <ALOGPS_SOLUBILITY>
4.03e-02 g/l

> <JCHEM_TRADITIONAL_IUPAC>
zaleplon

> <JCHEM_VEBER_RULE>
0

> <DRUGBANK_ID>
DB00962

> <SECONDARY_ACCESSION_NUMBERS>
APRD00411

> <DRUG_GROUPS>
approved; illicit; investigational

> <GENERIC_NAME>
Zaleplon

> <SYNONYMS>
3'-(3-Cyanopyrazolo(1,5-a)pyrimidin-7-yl)-N-ethylacetanilide; Zaleplon

> <PRODUCTS>
Sonata; Starnoc; Zaleplon

$$$$
984
  Mrv0541 02231215092D          

 34 38  0  0  1  0            999 V2000
    7.1363    0.0573    0.0000 O   0  0  0  0  0  0  0  0  0  0  0  0
    1.6500   -3.4965    0.0000 O   0  0  0  0  0  0  0  0  0  0  0  0
    8.4945   -0.3866    0.0000 O   0  0  0  0  0  0  0  0  0  0  0  0
    6.0994   -1.8033    0.0000 C   0  0  2  0  0  0  0  0  0  0  0  0
    6.0994   -0.9783    0.0000 C   0  0  2  0  0  0  0  0  0  0  0  0
    5.3849   -2.2158    0.0000 C   0  0  1  0  0  0  0  0  0  0  0  0
    4.6704   -1.8033    0.0000 C   0  0  2  0  0  0  0  0  0  0  0  0
    5.3849   -0.5658    0.0000 C   0  0  0  0  0  0  0  0  0  0  0  0
    6.8800   -0.7269    0.0000 C   0  0  2  0  0  0  0  0  0  0  0  0
    6.8800   -2.0547    0.0000 C   0  0  0  0  0  0  0  0  0  0  0  0
    4.6704   -0.9783    0.0000 C   0  0  0  0  0  0  0  0  0  0  0  0
    3.9196   -2.2214    0.0000 C   0  0  2  0  0  0  0  0  0  0  0  0
    7.3615   -1.3908    0.0000 C   0  0  0  0  0  0  0  0  0  0  0  0
    5.3981   -3.0751    0.0000 C   0  0  0  0  0  0  0  0  0  0  0  0
    6.0994   -0.1533    0.0000 C   0  0  0  0  0  0  0  0  0  0  0  0
    4.6573   -3.5105    0.0000 C   0  0  0  0  0  0  0  0  0  0  0  0
    3.9130   -3.0807    0.0000 C   0  0  0  0  0  0  0  0  0  0  0  0
    3.1550   -1.7561    0.0000 C   0  0  0  0  0  0  0  0  0  0  0  0
    2.3730   -2.1916    0.0000 C   0  0  0  0  0  0  0  0  0  0  0  0
    3.1413   -3.5343    0.0000 C   0  0  0  0  0  0  0  0  0  0  0  0
    2.3660   -3.0868    0.0000 C   0  0  0  0  0  0  0  0  0  0  0  0
    7.9436    0.2275    0.0000 C   0  0  0  0  0  0  0  0  0  0  0  0
    8.1998    1.0116    0.0000 C   0  0  0  0  0  0  0  0  0  0  0  0
    9.0071    1.1817    0.0000 C   0  0  0  0  0  0  0  0  0  0  0  0
    9.2634    1.9659    0.0000 C   0  0  0  0  0  0  0  0  0  0  0  0
    8.7125    2.5800    0.0000 C   0  0  0  0  0  0  0  0  0  0  0  0
   10.0707    2.1360    0.0000 C   0  0  0  0  0  0  0  0  0  0  0  0
    8.9687    3.3642    0.0000 C   0  0  0  0  0  0  0  0  0  0  0  0
   10.3270    2.9203    0.0000 C   0  0  0  0  0  0  0  0  0  0  0  0
    9.7760    3.5343    0.0000 C   0  0  0  0  0  0  0  0  0  0  0  0
    6.1692   -2.4596    0.0000 H   0  0  0  0  0  0  0  0  0  0  0  0
    5.9590   -2.5414    0.0000 H   0  0  0  0  0  0  0  0  0  0  0  0
    5.2420   -1.4733    0.0000 H   0  0  0  0  0  0  0  0  0  0  0  0
    3.9323   -1.5616    0.0000 H   0  0  0  0  0  0  0  0  0  0  0  0
  9  1  1  1  0  0  0
  1 22  1  0  0  0  0
  2 21  2  0  0  0  0
  3 22  2  0  0  0  0
  4  5  1  0  0  0  0
  4  6  1  0  0  0  0
  4 10  1  0  0  0  0
  4 31  1  6  0  0  0
  5  8  1  0  0  0  0
  5  9  1  0  0  0  0
  5 15  1  1  0  0  0
  6  7  1  0  0  0  0
  6 14  1  0  0  0  0
  6 32  1  1  0  0  0
  7 11  1  0  0  0  0
  7 12  1  0  0  0  0
  7 33  1  6  0  0  0
  8 11  1  0  0  0  0
  9 13  1  0  0  0  0
 10 13  1  0  0  0  0
 12 17  1  0  0  0  0
 12 18  1  0  0  0  0
 12 34  1  1  0  0  0
 14 16  1  0  0  0  0
 16 17  1  0  0  0  0
 17 20  2  0  0  0  0
 18 19  1  0  0  0  0
 19 21  1  0  0  0  0
 20 21  1  0  0  0  0
 22 23  1  0  0  0  0
 23 24  1  0  0  0  0
 24 25  1  0  0  0  0
 25 26  2  0  0  0  0
 25 27  1  0  0  0  0
 26 28  1  0  0  0  0
 27 29  2  0  0  0  0
 28 30  2  0  0  0  0
 29 30  1  0  0  0  0
M  END
> <DATABASE_ID>
DB00984

> <DATABASE_NAME>
drugbank

> <SMILES>
[H][C@@]12CC[C@H](OC(=O)CCC3=CC=CC=C3)[C@@]1(C)CC[C@]1([H])[C@@]3([H])CCC(=O)C=C3CC[C@@]21[H]

> <INCHI_IDENTIFIER>
InChI=1S/C27H34O3/c1-27-16-15-22-21-11-9-20(28)17-19(21)8-10-23(22)24(27)12-13-25(27)30-26(29)14-7-18-5-3-2-4-6-18/h2-6,17,21-25H,7-16H2,1H3/t21-,22+,23+,24-,25-,27-/m0/s1

> <INCHI_KEY>
UBWXUGDQUBIEIZ-QNTYDACNSA-N

> <FORMULA>
C27H34O3

> <MOLECULAR_WEIGHT>
406.5571

> <EXACT_MASS>
406.250794954

> <JCHEM_ACCEPTOR_COUNT>
2

> <JCHEM_AVERAGE_POLARIZABILITY>
47.82944409440197

> <JCHEM_BIOAVAILABILITY>
1

> <JCHEM_DONOR_COUNT>
0

> <JCHEM_FORMAL_CHARGE>
0

> <JCHEM_GHOSE_FILTER>
0

> <JCHEM_IUPAC>
(1S,2R,10R,11S,14S,15S)-15-methyl-5-oxotetracyclo[8.7.0.0²,⁷.0¹¹,¹⁵]heptadec-6-en-14-yl 3-phenylpropanoate

> <ALOGPS_LOGP>
4.22

> <JCHEM_LOGP>
5.785410072666667

> <ALOGPS_LOGS>
-5.95

> <JCHEM_MDDR_LIKE_RULE>
0

> <JCHEM_NUMBER_OF_RINGS>
5

> <JCHEM_PHYSIOLOGICAL_CHARGE>
0

> <JCHEM_PKA_STRONGEST_ACIDIC>
19.278885236855498

> <JCHEM_PKA_STRONGEST_BASIC>
-4.726056718914043

> <JCHEM_POLAR_SURFACE_AREA>
43.370000000000005

> <JCHEM_REFRACTIVITY>
118.42909999999999

> <JCHEM_ROTATABLE_BOND_COUNT>
5

> <JCHEM_RULE_OF_FIVE>
0

> <ALOGPS_SOLUBILITY>
4.58e-04 g/l

> <JCHEM_TRADITIONAL_IUPAC>
activin

> <JCHEM_VEBER_RULE>
0

> <DRUGBANK_ID>
DB00984

> <SECONDARY_ACCESSION_NUMBERS>
APRD00134

> <DRUG_GROUPS>
approved; illicit; investigational

> <GENERIC_NAME>
Nandrolone phenpropionate

> <SYNONYMS>
19NTPP; Nadrolone phenylpropionate; Nandrolon phenylpropionate; Nandrolone phenylpionate; Nandrolone phenylpropionate; Norandrolone phenyl propionate; Norandrostenolone phenylpropionate; Nortestosterone phenylpropionate; NPP; NTPP

> <INTERNATIONAL_BRANDS>
Durabolin

$$$$
1031
  Mrv0541 02231215112D          

 12 12  0  0  0  0            999 V2000
    3.1433    0.6035    0.0000 O   0  0  0  0  0  0  0  0  0  0  0  0
    4.3808   -0.1110    0.0000 O   0  0  0  0  0  0  0  0  0  0  0  0
    4.3808    1.3180    0.0000 N   0  0  0  0  0  0  0  0  0  0  0  0
    2.7308   -0.1110    0.0000 C   0  0  0  0  0  0  0  0  0  0  0  0
    2.0163   -0.5235    0.0000 C   0  0  0  0  0  0  0  0  0  0  0  0
    3.4453   -0.5235    0.0000 C   0  0  0  0  0  0  0  0  0  0  0  0
    2.0163   -1.3485    0.0000 C   0  0  0  0  0  0  0  0  0  0  0  0
    3.4453   -1.3485    0.0000 C   0  0  0  0  0  0  0  0  0  0  0  0
    2.7308   -1.7610    0.0000 C   0  0  0  0  0  0  0  0  0  0  0  0
    2.3183    0.6035    0.0000 C   0  0  0  0  0  0  0  0  0  0  0  0
    3.9683    0.6035    0.0000 C   0  0  0  0  0  0  0  0  0  0  0  0
    1.9058    1.3180    0.0000 C   0  0  0  0  0  0  0  0  0  0  0  0
  1  4  1  0  0  0  0
  1 11  1  0  0  0  0
  2 11  2  0  0  0  0
  3 11  1  0  0  0  0
  4  5  1  0  0  0  0
  4  6  1  0  0  0  0
  4 10  1  0  0  0  0
  5  7  1  0  0  0  0
  6  8  1  0  0  0  0
  7  9  1  0  0  0  0
  8  9  1  0  0  0  0
 10 12  3  0  0  0  0
M  END
> <DATABASE_ID>
DB01031

> <DATABASE_NAME>
drugbank

> <SMILES>
NC(=O)OC1(CCCCC1)C#C

> <INCHI_IDENTIFIER>
InChI=1S/C9H13NO2/c1-2-9(12-8(10)11)6-4-3-5-7-9/h1H,3-7H2,(H2,10,11)

> <INCHI_KEY>
GXRZIMHKGDIBEW-UHFFFAOYSA-N

> <FORMULA>
C9H13NO2

> <MOLECULAR_WEIGHT>
167.205

> <EXACT_MASS>
167.094628665

> <JCHEM_ACCEPTOR_COUNT>
1

> <JCHEM_AVERAGE_POLARIZABILITY>
17.726913510740403

> <JCHEM_BIOAVAILABILITY>
1

> <JCHEM_DONOR_COUNT>
1

> <JCHEM_FORMAL_CHARGE>
0

> <JCHEM_GHOSE_FILTER>
1

> <JCHEM_IUPAC>
1-ethynylcyclohexyl carbamate

> <ALOGPS_LOGP>
1.09

> <JCHEM_LOGP>
1.5401250993333333

> <ALOGPS_LOGS>
-3.20

> <JCHEM_MDDR_LIKE_RULE>
0

> <JCHEM_NUMBER_OF_RINGS>
1

> <JCHEM_PHYSIOLOGICAL_CHARGE>
0

> <JCHEM_PKA_STRONGEST_ACIDIC>
15.371112584590886

> <JCHEM_POLAR_SURFACE_AREA>
52.32

> <JCHEM_REFRACTIVITY>
44.573499999999996

> <JCHEM_ROTATABLE_BOND_COUNT>
2

> <JCHEM_RULE_OF_FIVE>
1

> <ALOGPS_SOLUBILITY>
1.06e-01 g/l

> <JCHEM_TRADITIONAL_IUPAC>
ethinamate

> <JCHEM_VEBER_RULE>
0

> <DRUGBANK_ID>
DB01031

> <SECONDARY_ACCESSION_NUMBERS>
APRD00959

> <DRUG_GROUPS>
approved; illicit; withdrawn

> <GENERIC_NAME>
Ethinamate

> <SYNONYMS>
1-ethynylcyclohexanol carbamate; Aethinyl-cyclohexyl-carbamat; Ethinamate; Ethinamatum; Etinamato

> <INTERNATIONAL_BRANDS>
Valamin; Valmid

$$$$
1068
  Mrv0541 02231215132D          

 22 24  0  0  0  0            999 V2000
    3.6081   -1.2313    0.0000 Cl  0  0  0  0  0  0  0  0  0  0  0  0
    2.3403    2.5929    0.0000 O   0  0  0  0  0  0  0  0  0  0  0  0
    1.8668   -2.5929    0.0000 O   0  5  0  0  0  0  0  0  0  0  0  0
    3.2913   -2.4806    0.0000 O   0  0  0  0  0  0  0  0  0  0  0  0
    2.1839    1.2046    0.0000 N   0  0  0  0  0  0  0  0  0  0  0  0
    4.0375    1.2046    0.0000 N   0  0  0  0  0  0  0  0  0  0  0  0
    2.5467   -2.1255    0.0000 N   0  3  0  0  0  0  0  0  0  0  0  0
    3.1107    0.0423    0.0000 C   0  0  0  0  0  0  0  0  0  0  0  0
    2.3674    0.4003    0.0000 C   0  0  0  0  0  0  0  0  0  0  0  0
    3.8540    0.4003    0.0000 C   0  0  0  0  0  0  0  0  0  0  0  0
    4.4990   -0.1141    0.0000 C   0  0  0  0  0  0  0  0  0  0  0  0
    3.1881   -0.8135    0.0000 C   0  0  0  0  0  0  0  0  0  0  0  0
    1.6500   -0.0728    0.0000 C   0  0  0  0  0  0  0  0  0  0  0  0
    3.5232    1.8496    0.0000 C   0  0  0  0  0  0  0  0  0  0  0  0
    2.4818   -1.3031    0.0000 C   0  0  0  0  0  0  0  0  0  0  0  0
    2.6982    1.8496    0.0000 C   0  0  0  0  0  0  0  0  0  0  0  0
    1.7076   -0.9302    0.0000 C   0  0  0  0  0  0  0  0  0  0  0  0
    4.3760   -0.9299    0.0000 C   0  0  0  0  0  0  0  0  0  0  0  0
    5.2670    0.1873    0.0000 C   0  0  0  0  0  0  0  0  0  0  0  0
    5.0210   -1.4442    0.0000 C   0  0  0  0  0  0  0  0  0  0  0  0
    5.9120   -0.3271    0.0000 C   0  0  0  0  0  0  0  0  0  0  0  0
    5.7890   -1.1429    0.0000 C   0  0  0  0  0  0  0  0  0  0  0  0
  1 18  1  0  0  0  0
  2 16  2  0  0  0  0
  3  7  1  0  0  0  0
  4  7  2  0  0  0  0
  5  9  1  0  0  0  0
  5 16  1  0  0  0  0
  6 10  2  0  0  0  0
  6 14  1  0  0  0  0
  7 15  1  0  0  0  0
  8  9  2  0  0  0  0
  8 10  1  0  0  0  0
  8 12  1  0  0  0  0
  9 13  1  0  0  0  0
 10 11  1  0  0  0  0
 11 18  1  0  0  0  0
 11 19  2  0  0  0  0
 12 15  2  0  0  0  0
 13 17  2  0  0  0  0
 14 16  1  0  0  0  0
 15 17  1  0  0  0  0
 18 20  2  0  0  0  0
 19 21  1  0  0  0  0
 20 22  1  0  0  0  0
 21 22  2  0  0  0  0
M  CHG  2   3  -1   7   1
M  END
> <DATABASE_ID>
DB01068

> <DATABASE_NAME>
drugbank

> <SMILES>
[O-][N+](=O)C1=CC2=C(NC(=O)CN=C2C2=CC=CC=C2Cl)C=C1

> <INCHI_IDENTIFIER>
InChI=1S/C15H10ClN3O3/c16-12-4-2-1-3-10(12)15-11-7-9(19(21)22)5-6-13(11)18-14(20)8-17-15/h1-7H,8H2,(H,18,20)

> <INCHI_KEY>
DGBIGWXXNGSACT-UHFFFAOYSA-N

> <FORMULA>
C15H10ClN3O3

> <MOLECULAR_WEIGHT>
315.711

> <EXACT_MASS>
315.041068908

> <JCHEM_ACCEPTOR_COUNT>
4

> <JCHEM_AVERAGE_POLARIZABILITY>
29.585434367361763

> <JCHEM_BIOAVAILABILITY>
1

> <JCHEM_DONOR_COUNT>
1

> <JCHEM_FORMAL_CHARGE>
0

> <JCHEM_GHOSE_FILTER>
1

> <JCHEM_IUPAC>
5-(2-chlorophenyl)-7-nitro-2,3-dihydro-1H-1,4-benzodiazepin-2-one

> <ALOGPS_LOGP>
2.76

> <JCHEM_LOGP>
3.152004688

> <ALOGPS_LOGS>
-4.47

> <JCHEM_MDDR_LIKE_RULE>
0

> <JCHEM_NUMBER_OF_RINGS>
3

> <JCHEM_PHYSIOLOGICAL_CHARGE>
0

> <JCHEM_PKA_STRONGEST_ACIDIC>
11.894771930436995

> <JCHEM_PKA_STRONGEST_BASIC>
1.8562715274495132

> <JCHEM_POLAR_SURFACE_AREA>
87.28

> <JCHEM_REFRACTIVITY>
84.02070000000002

> <JCHEM_ROTATABLE_BOND_COUNT>
2

> <JCHEM_RULE_OF_FIVE>
1

> <ALOGPS_SOLUBILITY>
1.06e-02 g/l

> <JCHEM_TRADITIONAL_IUPAC>
clonazepam

> <JCHEM_VEBER_RULE>
0

> <DRUGBANK_ID>
DB01068

> <SECONDARY_ACCESSION_NUMBERS>
APRD00054

> <DRUG_GROUPS>
approved; illicit

> <GENERIC_NAME>
Clonazepam

> <SYNONYMS>
1,3-dihydro-7-nitro-5-(2-chlorophenyl)-2H-1,4.benzodiazepin-2-one; 5-(2-chloro-phenyl)-7-nitro-1,3-dihydro-benzo[e][1,4]diazepin-2-one; 5-(2-chlorophenyl)-7-nitro-1H-benzo[e][1,4]diazepin-2(3H)-one; 5-(o-chlorophenyl)-7-nitro-1,3-dihydro-2H-1,4-benzodiazepin-2-one; Clonazepam; Clonazepamum

> <PRODUCTS>
Accel-clonazepam; Apo-clonazepam - Tab 0.5mg; Apo-clonazepam - Tab 2mg; Clonapam; Clonazepam; Clonazepam-0.5 - Tab 0.5mg; Clonazepam-2 - Tab 2mg; Clonazepam-R; Co Clonazepam; Dom-clonazepam - Tab 0.5mg; Dom-clonazepam - Tab 2mg; Dom-clonazepam-R - Tab 0.5mg; Klonopin; Mylan-clonazepam; Nu-clonazepam - Tab 0.5mg; Nu-clonazepam - Tab 2mg; PHL-clonazepam - 0.25mg; PHL-clonazepam - Tab 0.5mg; PHL-clonazepam - Tab 1mg; PHL-clonazepam - Tab 2mg; PHL-clonazepam-R; PMS-clonazepam Tab 0.5mg; PMS-clonazepam Tab 1.0mg; PMS-clonazepam Tab 2mg; PMS-clonazepam- Tab 0.25mg; PMS-clonazepam-R; Pro-clonazepam; Ratio-clonazepam; Riva-clonazepam; Rivotril 0.5tab; Rivotril 2tab; Sandoz Clonazepam; Teva-clonazepam; Zym-clonazepam

> <INTERNATIONAL_BRANDS>
Antelepsin; Iktorivil; Rivotril

$$$$
1081
  Mrv0541 02231215142D          

 34 37  0  0  0  0            999 V2000
    3.6020    2.8717    0.0000 O   0  0  0  0  0  0  0  0  0  0  0  0
    4.5704    3.6842    0.0000 O   0  0  0  0  0  0  0  0  0  0  0  0
    4.8396    0.5072    0.0000 N   0  0  0  0  0  0  0  0  0  0  0  0
    5.7751   -1.5553    0.0000 N   0  0  0  0  0  0  0  0  0  0  0  0
    4.8396    2.1573    0.0000 C   0  0  0  0  0  0  0  0  0  0  0  0
    4.1251    1.7447    0.0000 C   0  0  0  0  0  0  0  0  0  0  0  0
    5.5541    1.7447    0.0000 C   0  0  0  0  0  0  0  0  0  0  0  0
    4.1251    0.9197    0.0000 C   0  0  0  0  0  0  0  0  0  0  0  0
    5.5541    0.9197    0.0000 C   0  0  0  0  0  0  0  0  0  0  0  0
    4.8396   -0.3178    0.0000 C   0  0  0  0  0  0  0  0  0  0  0  0
    5.4716    2.6876    0.0000 C   0  0  0  0  0  0  0  0  0  0  0  0
    4.4270    2.8717    0.0000 C   0  0  0  0  0  0  0  0  0  0  0  0
    4.1251   -0.7303    0.0000 C   0  0  0  0  0  0  0  0  0  0  0  0
    4.1251   -1.5553    0.0000 C   0  0  0  0  0  0  0  0  0  0  0  0
    5.3283    3.5001    0.0000 C   0  0  0  0  0  0  0  0  0  0  0  0
    6.2469    2.4054    0.0000 C   0  0  0  0  0  0  0  0  0  0  0  0
    3.3001   -1.5553    0.0000 C   0  0  0  0  0  0  0  0  0  0  0  0
    4.1251   -2.3803    0.0000 C   0  0  0  0  0  0  0  0  0  0  0  0
    5.9603    4.0304    0.0000 C   0  0  0  0  0  0  0  0  0  0  0  0
    6.8788    2.9357    0.0000 C   0  0  0  0  0  0  0  0  0  0  0  0
    4.9501   -1.5553    0.0000 C   0  0  0  0  0  0  0  0  0  0  0  0
    6.7356    3.7482    0.0000 C   0  0  0  0  0  0  0  0  0  0  0  0
    3.1895    3.5863    0.0000 C   0  0  0  0  0  0  0  0  0  0  0  0
    2.8876   -2.2698    0.0000 C   0  0  0  0  0  0  0  0  0  0  0  0
    4.8396   -2.7929    0.0000 C   0  0  0  0  0  0  0  0  0  0  0  0
    2.8876   -0.8409    0.0000 C   0  0  0  0  0  0  0  0  0  0  0  0
    3.4106   -2.7929    0.0000 C   0  0  0  0  0  0  0  0  0  0  0  0
    2.3645    3.5863    0.0000 C   0  0  0  0  0  0  0  0  0  0  0  0
    2.0625   -2.2698    0.0000 C   0  0  0  0  0  0  0  0  0  0  0  0
    4.8396   -3.6179    0.0000 C   0  0  0  0  0  0  0  0  0  0  0  0
    2.0625   -0.8409    0.0000 C   0  0  0  0  0  0  0  0  0  0  0  0
    3.4106   -3.6179    0.0000 C   0  0  0  0  0  0  0  0  0  0  0  0
    1.6500   -1.5553    0.0000 C   0  0  0  0  0  0  0  0  0  0  0  0
    4.1251   -4.0304    0.0000 C   0  0  0  0  0  0  0  0  0  0  0  0
  1 12  1  0  0  0  0
  1 23  1  0  0  0  0
  2 12  2  0  0  0  0
  3  8  1  0  0  0  0
  3  9  1  0  0  0  0
  3 10  1  0  0  0  0
  4 21  3  0  0  0  0
  5  6  1  0  0  0  0
  5  7  1  0  0  0  0
  5 11  1  0  0  0  0
  5 12  1  0  0  0  0
  6  8  1  0  0  0  0
  7  9  1  0  0  0  0
 10 13  1  0  0  0  0
 11 15  2  0  0  0  0
 11 16  1  0  0  0  0
 13 14  1  0  0  0  0
 14 17  1  0  0  0  0
 14 18  1  0  0  0  0
 14 21  1  0  0  0  0
 15 19  1  0  0  0  0
 16 20  2  0  0  0  0
 17 24  2  0  0  0  0
 17 26  1  0  0  0  0
 18 25  2  0  0  0  0
 18 27  1  0  0  0  0
 19 22  2  0  0  0  0
 20 22  1  0  0  0  0
 23 28  1  0  0  0  0
 24 29  1  0  0  0  0
 25 30  1  0  0  0  0
 26 31  2  0  0  0  0
 27 32  2  0  0  0  0
 29 33  2  0  0  0  0
 30 34  2  0  0  0  0
 31 33  1  0  0  0  0
 32 34  1  0  0  0  0
M  END
> <DATABASE_ID>
DB01081

> <DATABASE_NAME>
drugbank

> <SMILES>
CCOC(=O)C1(CCN(CCC(C#N)(C2=CC=CC=C2)C2=CC=CC=C2)CC1)C1=CC=CC=C1

> <INCHI_IDENTIFIER>
InChI=1S/C30H32N2O2/c1-2-34-28(33)29(25-12-6-3-7-13-25)18-21-32(22-19-29)23-20-30(24-31,26-14-8-4-9-15-26)27-16-10-5-11-17-27/h3-17H,2,18-23H2,1H3

> <INCHI_KEY>
HYPPXZBJBPSRLK-UHFFFAOYSA-N

> <FORMULA>
C30H32N2O2

> <MOLECULAR_WEIGHT>
452.5873

> <EXACT_MASS>
452.246378278

> <JCHEM_ACCEPTOR_COUNT>
3

> <JCHEM_AVERAGE_POLARIZABILITY>
51.576568329906884

> <JCHEM_BIOAVAILABILITY>
1

> <JCHEM_DONOR_COUNT>
0

> <JCHEM_FORMAL_CHARGE>
0

> <JCHEM_GHOSE_FILTER>
0

> <JCHEM_IUPAC>
ethyl 1-(3-cyano-3,3-diphenylpropyl)-4-phenylpiperidine-4-carboxylate

> <ALOGPS_LOGP>
5.74

> <JCHEM_LOGP>
5.884015037999999

> <ALOGPS_LOGS>
-5.49

> <JCHEM_MDDR_LIKE_RULE>
1

> <JCHEM_NUMBER_OF_RINGS>
4

> <JCHEM_PHYSIOLOGICAL_CHARGE>
1

> <JCHEM_PKA_STRONGEST_BASIC>
8.49558763946689

> <JCHEM_POLAR_SURFACE_AREA>
53.33

> <JCHEM_REFRACTIVITY>
146.76189999999997

> <JCHEM_ROTATABLE_BOND_COUNT>
9

> <JCHEM_RULE_OF_FIVE>
0

> <ALOGPS_SOLUBILITY>
1.46e-03 g/l

> <JCHEM_TRADITIONAL_IUPAC>
diphenoxylate

> <JCHEM_VEBER_RULE>
0

> <DRUGBANK_ID>
DB01081

> <SECONDARY_ACCESSION_NUMBERS>
APRD00366

> <DRUG_GROUPS>
approved; illicit

> <GENERIC_NAME>
Diphenoxylate

> <SYNONYMS>
1-(3-Cyano-3,3-diphenylpropyl)-4-phenyl-isonipecotic acid ethyl ester; 2,2-Diphenyl-4-(4-carbethoxy-4-phenylpiperidino)butyronitrile; Difenossilato; Difenoxilato; Diphenoxylate; Diphenoxylatum; Ethyl 1-(3-cyano-3,3-diphenylpropyl)-4-phenyl-4-piperidinecarboxylate; Ethyl 1-(3-cyano-3,3-diphenylpropyl)-4-phenylisonipecotate

> <PRODUCTS>
Diphenoxylate Hcl and Atropine Sulfate; Diphenoxylate Hydrochloride and Atropine Sulfate; Diphenoxylate hydrochloride and atropine sulfate; Lomotil

> <SALTS>
Diphenoxylate hydrochloride

$$$$
1105
  Mrv0541 02231215152D          

 19 20  0  0  1  0            999 V2000
    4.1251   -2.3645    0.0000 Cl  0  0  0  0  0  0  0  0  0  0  0  0
    2.8876    1.6500    0.0000 N   0  0  0  0  0  0  0  0  0  0  0  0
    4.1251    0.9356    0.0000 C   0  0  0  0  0  0  0  0  0  0  0  0
    4.9501    0.9356    0.0000 C   0  0  0  0  0  0  0  0  0  0  0  0
    4.1251    1.7606    0.0000 C   0  0  0  0  0  0  0  0  0  0  0  0
    3.3001    0.9356    0.0000 C   0  0  0  0  0  0  0  0  0  0  0  0
    4.9501    1.7606    0.0000 C   0  0  0  0  0  0  0  0  0  0  0  0
    4.1251    0.1106    0.0000 C   0  0  0  0  0  0  0  0  0  0  0  0
    2.8876    0.2210    0.0000 C   0  0  0  0  0  0  0  0  0  0  0  0
    2.0625    0.2210    0.0000 C   0  0  0  0  0  0  0  0  0  0  0  0
    4.8396   -0.3020    0.0000 C   0  0  0  0  0  0  0  0  0  0  0  0
    3.4106   -0.3020    0.0000 C   0  0  0  0  0  0  0  0  0  0  0  0
    2.0625    1.6500    0.0000 C   0  0  0  0  0  0  0  0  0  0  0  0
    3.3001    2.3645    0.0000 C   0  0  0  0  0  0  0  0  0  0  0  0
    1.6500   -0.4934    0.0000 C   0  0  0  0  0  0  0  0  0  0  0  0
    1.6500    0.9356    0.0000 C   0  0  0  0  0  0  0  0  0  0  0  0
    4.8396   -1.1270    0.0000 C   0  0  0  0  0  0  0  0  0  0  0  0
    3.4106   -1.1270    0.0000 C   0  0  0  0  0  0  0  0  0  0  0  0
    4.1251   -1.5395    0.0000 C   0  0  0  0  0  0  0  0  0  0  0  0
  1 19  1  0  0  0  0
  2  6  1  0  0  0  0
  2 13  1  0  0  0  0
  2 14  1  0  0  0  0
  3  4  1  0  0  0  0
  3  5  1  0  0  0  0
  3  6  1  0  0  0  0
  3  8  1  0  0  0  0
  4  7  1  0  0  0  0
  5  7  1  0  0  0  0
  6  9  1  0  0  0  0
  8 11  2  0  0  0  0
  8 12  1  0  0  0  0
  9 10  1  0  0  0  0
 10 15  1  0  0  0  0
 10 16  1  0  0  0  0
 11 17  1  0  0  0  0
 12 18  2  0  0  0  0
 17 19  2  0  0  0  0
 18 19  1  0  0  0  0
M  END
> <DATABASE_ID>
DB01105

> <DATABASE_NAME>
drugbank

> <SMILES>
CC(C)CC(N(C)C)C1(CCC1)C1=CC=C(Cl)C=C1

> <INCHI_IDENTIFIER>
InChI=1S/C17H26ClN/c1-13(2)12-16(19(3)4)17(10-5-11-17)14-6-8-15(18)9-7-14/h6-9,13,16H,5,10-12H2,1-4H3

> <INCHI_KEY>
UNAANXDKBXWMLN-UHFFFAOYSA-N

> <FORMULA>
C17H26ClN

> <MOLECULAR_WEIGHT>
279.848

> <EXACT_MASS>
279.175377544

> <JCHEM_ACCEPTOR_COUNT>
1

> <JCHEM_AVERAGE_POLARIZABILITY>
32.9023403046818

> <JCHEM_BIOAVAILABILITY>
1

> <JCHEM_DONOR_COUNT>
0

> <JCHEM_FORMAL_CHARGE>
0

> <JCHEM_GHOSE_FILTER>
1

> <JCHEM_IUPAC>
{1-[1-(4-chlorophenyl)cyclobutyl]-3-methylbutyl}dimethylamine

> <ALOGPS_LOGP>
5.05

> <JCHEM_LOGP>
5.201850084

> <ALOGPS_LOGS>
-5.47

> <JCHEM_MDDR_LIKE_RULE>
0

> <JCHEM_NUMBER_OF_RINGS>
2

> <JCHEM_PHYSIOLOGICAL_CHARGE>
1

> <JCHEM_PKA_STRONGEST_BASIC>
9.774437990168428

> <JCHEM_POLAR_SURFACE_AREA>
3.24

> <JCHEM_REFRACTIVITY>
83.9214

> <JCHEM_ROTATABLE_BOND_COUNT>
5

> <JCHEM_RULE_OF_FIVE>
0

> <ALOGPS_SOLUBILITY>
9.40e-04 g/l

> <JCHEM_TRADITIONAL_IUPAC>
sibutramine

> <JCHEM_VEBER_RULE>
1

> <DRUGBANK_ID>
DB01105

> <SECONDARY_ACCESSION_NUMBERS>
APRD00456

> <DRUG_GROUPS>
approved; illicit; investigational; withdrawn

> <GENERIC_NAME>
Sibutramine

> <SYNONYMS>
Sibutramina; Sibutramine; Sibutraminum

> <PRODUCTS>
Apo-sibutramine; Meridia

> <INTERNATIONAL_BRANDS>
Butramin; Medaria; Reductil

> <SALTS>
Sibutramine hydrochloride

$$$$
1107
  Mrv0541 02231215152D          

 13 13  0  0  1  0            999 V2000
    1.6500    0.1106    0.0000 O   0  0  0  0  0  0  0  0  0  0  0  0
    4.5080    0.1106    0.0000 O   0  0  0  0  0  0  0  0  0  0  0  0
    3.7935   -1.1270    0.0000 N   0  0  0  0  0  0  0  0  0  0  0  0
    3.0791    0.1106    0.0000 C   0  0  0  0  0  0  0  0  0  0  0  0
    2.3645   -1.1270    0.0000 C   0  0  0  0  0  0  0  0  0  0  0  0
    2.3645   -0.3020    0.0000 C   0  0  0  0  0  0  0  0  0  0  0  0
    2.6665    0.8250    0.0000 C   0  0  0  0  0  0  0  0  0  0  0  0
    3.4916    0.8250    0.0000 C   0  0  0  0  0  0  0  0  0  0  0  0
    3.7935   -0.3020    0.0000 C   0  0  0  0  0  0  0  0  0  0  0  0
    3.0791   -1.5395    0.0000 C   0  0  0  0  0  0  0  0  0  0  0  0
    1.6500   -1.5395    0.0000 C   0  0  0  0  0  0  0  0  0  0  0  0
    1.8415    0.8250    0.0000 C   0  0  0  0  0  0  0  0  0  0  0  0
    3.0791    1.5395    0.0000 C   0  0  0  0  0  0  0  0  0  0  0  0
  1  6  2  0  0  0  0
  2  9  2  0  0  0  0
  3  9  1  0  0  0  0
  3 10  1  0  0  0  0
  4  6  1  0  0  0  0
  4  7  1  0  0  0  0
  4  8  1  0  0  0  0
  4  9  1  0  0  0  0
  5  6  1  0  0  0  0
  5 10  1  0  0  0  0
  5 11  1  0  0  0  0
  7 12  1  0  0  0  0
  8 13  1  0  0  0  0
M  END
> <DATABASE_ID>
DB01107

> <DATABASE_NAME>
drugbank

> <SMILES>
CCC1(CC)C(=O)NCC(C)C1=O

> <INCHI_IDENTIFIER>
InChI=1S/C10H17NO2/c1-4-10(5-2)8(12)7(3)6-11-9(10)13/h7H,4-6H2,1-3H3,(H,11,13)

> <INCHI_KEY>
SIDLZWOQUZRBRU-UHFFFAOYSA-N

> <FORMULA>
C10H17NO2

> <MOLECULAR_WEIGHT>
183.2475

> <EXACT_MASS>
183.125928793

> <JCHEM_ACCEPTOR_COUNT>
2

> <JCHEM_AVERAGE_POLARIZABILITY>
19.952090892432373

> <JCHEM_BIOAVAILABILITY>
1

> <JCHEM_DONOR_COUNT>
1

> <JCHEM_FORMAL_CHARGE>
0

> <JCHEM_GHOSE_FILTER>
1

> <JCHEM_IUPAC>
3,3-diethyl-5-methylpiperidine-2,4-dione

> <ALOGPS_LOGP>
0.94

> <JCHEM_LOGP>
1.8847076539999998

> <ALOGPS_LOGS>
-1.21

> <JCHEM_MDDR_LIKE_RULE>
0

> <JCHEM_NUMBER_OF_RINGS>
1

> <JCHEM_PHYSIOLOGICAL_CHARGE>
0

> <JCHEM_PKA>
18.48863347852474

> <JCHEM_PKA_STRONGEST_ACIDIC>
14.534169348808579

> <JCHEM_PKA_STRONGEST_BASIC>
-3.146638093056246

> <JCHEM_POLAR_SURFACE_AREA>
46.17

> <JCHEM_REFRACTIVITY>
50.250099999999996

> <JCHEM_ROTATABLE_BOND_COUNT>
2

> <JCHEM_RULE_OF_FIVE>
1

> <ALOGPS_SOLUBILITY>
1.13e+01 g/l

> <JCHEM_TRADITIONAL_IUPAC>
dimerin

> <JCHEM_VEBER_RULE>
0

> <DRUGBANK_ID>
DB01107

> <SECONDARY_ACCESSION_NUMBERS>
APRD00734

> <DRUG_GROUPS>
approved; illicit; withdrawn

> <GENERIC_NAME>
Methyprylon

> <SYNONYMS>
Methyprylon; Methyprylone; Methyprylonum; Metiprilon; Metiprilona; Metiprilone

> <INTERNATIONAL_BRANDS>
Dimerin; Noctan; Noludar

$$$$
1185
  Mrv0541 02231215182D          

 26 29  0  0  1  0            999 V2000
    4.1396    0.5667    0.0000 F   0  0  0  0  0  0  0  0  0  0  0  0
    7.5474    1.4947    0.0000 O   0  0  0  0  0  0  0  0  0  0  0  0
    3.9555    1.1722    0.0000 O   0  0  0  0  0  0  0  0  0  0  0  0
    1.6498   -1.7582    0.0000 O   0  0  0  0  0  0  0  0  0  0  0  0
    6.0987    0.7597    0.0000 C   0  0  1  0  0  0  0  0  0  0  0  0
    6.0987   -0.0653    0.0000 C   0  0  2  0  0  0  0  0  0  0  0  0
    5.3843   -0.4777    0.0000 C   0  0  1  0  0  0  0  0  0  0  0  0
    4.6698   -0.0653    0.0000 C   0  0  2  0  0  0  0  0  0  0  0  0
    6.8793    1.0111    0.0000 C   0  0  2  0  0  0  0  0  0  0  0  0
    5.3843    1.1722    0.0000 C   0  0  0  0  0  0  0  0  0  0  0  0
    3.9192   -0.4833    0.0000 C   0  0  2  0  0  0  0  0  0  0  0  0
    4.6698    0.7597    0.0000 C   0  0  2  0  0  0  0  0  0  0  0  0
    6.8793   -0.3166    0.0000 C   0  0  0  0  0  0  0  0  0  0  0  0
    7.3607    0.3473    0.0000 C   0  0  0  0  0  0  0  0  0  0  0  0
    5.3975   -1.3368    0.0000 C   0  0  0  0  0  0  0  0  0  0  0  0
    6.0987    1.5846    0.0000 C   0  0  0  0  0  0  0  0  0  0  0  0
    3.9126   -1.3425    0.0000 C   0  0  0  0  0  0  0  0  0  0  0  0
    4.6567   -1.7722    0.0000 C   0  0  0  0  0  0  0  0  0  0  0  0
    3.1546   -0.0180    0.0000 C   0  0  0  0  0  0  0  0  0  0  0  0
    6.6257    1.7960    0.0000 C   0  0  0  0  0  0  0  0  0  0  0  0
    3.6431    0.2940    0.0000 C   0  0  0  0  0  0  0  0  0  0  0  0
    2.3727   -0.4535    0.0000 C   0  0  0  0  0  0  0  0  0  0  0  0
    3.1409   -1.7960    0.0000 C   0  0  0  0  0  0  0  0  0  0  0  0
    2.3658   -1.3485    0.0000 C   0  0  0  0  0  0  0  0  0  0  0  0
    6.1685   -0.7215    0.0000 H   0  0  0  0  0  0  0  0  0  0  0  0
    5.9583   -0.8032    0.0000 H   0  0  0  0  0  0  0  0  0  0  0  0
  8  1  1  6  0  0  0
  9  2  1  1  0  0  0
 12  3  1  1  0  0  0
  4 24  2  0  0  0  0
  5  6  1  0  0  0  0
  5  9  1  0  0  0  0
  5 10  1  0  0  0  0
  5 16  1  1  0  0  0
  6  7  1  0  0  0  0
  6 13  1  0  0  0  0
  6 25  1  6  0  0  0
  7  8  1  0  0  0  0
  7 15  1  0  0  0  0
  7 26  1  1  0  0  0
  8 11  1  0  0  0  0
  8 12  1  0  0  0  0
  9 14  1  0  0  0  0
  9 20  1  0  0  0  0
 10 12  1  0  0  0  0
 11 17  1  0  0  0  0
 11 19  1  0  0  0  0
 11 21  1  1  0  0  0
 13 14  1  0  0  0  0
 15 18  1  0  0  0  0
 17 18  1  0  0  0  0
 17 23  2  0  0  0  0
 19 22  1  0  0  0  0
 22 24  1  0  0  0  0
 23 24  1  0  0  0  0
M  END
> <DATABASE_ID>
DB01185

> <DATABASE_NAME>
drugbank

> <SMILES>
[H][C@@]12CC[C@](C)(O)[C@@]1(C)C[C@H](O)[C@@]1(F)[C@@]2([H])CCC2=CC(=O)CC[C@]12C

> <INCHI_IDENTIFIER>
InChI=1S/C20H29FO3/c1-17-8-6-13(22)10-12(17)4-5-15-14-7-9-19(3,24)18(14,2)11-16(23)20(15,17)21/h10,14-16,23-24H,4-9,11H2,1-3H3/t14-,15-,16-,17-,18-,19-,20-/m0/s1

> <INCHI_KEY>
YLRFCQOZQXIBAB-RBZZARIASA-N

> <FORMULA>
C20H29FO3

> <MOLECULAR_WEIGHT>
336.4409

> <EXACT_MASS>
336.210072999

> <JCHEM_ACCEPTOR_COUNT>
3

> <JCHEM_AVERAGE_POLARIZABILITY>
36.63289533679136

> <JCHEM_BIOAVAILABILITY>
1

> <JCHEM_DONOR_COUNT>
2

> <JCHEM_FORMAL_CHARGE>
0

> <JCHEM_GHOSE_FILTER>
1

> <JCHEM_IUPAC>
(1R,2S,10S,11S,14S,15S,17S)-1-fluoro-14,17-dihydroxy-2,14,15-trimethyltetracyclo[8.7.0.0²,⁷.0¹¹,¹⁵]heptadec-6-en-5-one

> <ALOGPS_LOGP>
2.50

> <JCHEM_LOGP>
2.3808420980000005

> <ALOGPS_LOGS>
-3.87

> <JCHEM_MDDR_LIKE_RULE>
0

> <JCHEM_NUMBER_OF_RINGS>
4

> <JCHEM_PHYSIOLOGICAL_CHARGE>
0

> <JCHEM_PKA>
14.619128292066843

> <JCHEM_PKA_STRONGEST_ACIDIC>
13.601726563596163

> <JCHEM_PKA_STRONGEST_BASIC>
-2.9899243323854225

> <JCHEM_POLAR_SURFACE_AREA>
57.53

> <JCHEM_REFRACTIVITY>
90.18849999999999

> <JCHEM_ROTATABLE_BOND_COUNT>
0

> <JCHEM_RULE_OF_FIVE>
1

> <ALOGPS_SOLUBILITY>
4.52e-02 g/l

> <JCHEM_TRADITIONAL_IUPAC>
fluoxymesterone

> <JCHEM_VEBER_RULE>
0

> <DRUGBANK_ID>
DB01185

> <SECONDARY_ACCESSION_NUMBERS>
APRD00981

> <DRUG_GROUPS>
approved; illicit

> <GENERIC_NAME>
Fluoxymesterone

> <SYNONYMS>
11β,17β-Dihydroxy-9α-fluoro-17α-methyl-4-androster-3-one; 17α-Methyl-9α-fluoro-11β-hydroxytesterone; 9-Fluoro-11β,17β-dihydroxy-17-methylandrost-4-en-3-one; 9α-Fluoro-11β-hydroxy-17-methyltestosterone; Fluoximesterona; Fluoxymesterone; Fluoxymestérone; Fluoxymesteronum

> <PRODUCTS>
Androxy; Halotestin

> <INTERNATIONAL_BRANDS>
Ora-Testryl; Testoral; U-Gono; UItandren

$$$$

  Mrv0541 04191212172D          

 16 16  0  0  1  0            999 V2000
    4.1890   -6.4628    0.0000 C   0  0  0  0  0  0  0  0  0  0  0  0
    4.9035   -6.0503    0.0000 C   0  0  0  0  0  0  0  0  0  0  0  0
    5.6179   -6.4628    0.0000 C   0  0  0  0  0  0  0  0  0  0  0  0
    6.3324   -6.0503    0.0000 C   0  0  0  0  0  0  0  0  0  0  0  0
    4.1890   -7.2879    0.0000 F   0  0  0  0  0  0  0  0  0  0  0  0
    3.4745   -6.0503    0.0000 F   0  0  0  0  0  0  0  0  0  0  0  0
    7.0469   -6.4628    0.0000 C   0  0  0  0  0  0  0  0  0  0  0  0
    7.7614   -5.2253    0.0000 N   0  0  0  0  0  0  0  0  0  0  0  0
    4.9035   -5.2253    0.0000 C   0  0  0  0  0  0  0  0  0  0  0  0
    7.7614   -6.0503    0.0000 C   0  0  1  0  0  0  0  0  0  0  0  0
    5.6179   -4.8128    0.0000 C   0  0  0  0  0  0  0  0  0  0  0  0
    6.3324   -5.2253    0.0000 C   0  0  0  0  0  0  0  0  0  0  0  0
    8.4759   -6.4628    0.0000 C   0  0  0  0  0  0  0  0  0  0  0  0
    3.4690   -6.8822    0.0000 F   0  0  0  0  0  0  0  0  0  0  0  0
    7.0469   -4.8128    0.0000 C   0  0  0  0  0  0  0  0  0  0  0  0
    7.0469   -3.9878    0.0000 C   0  0  0  0  0  0  0  0  0  0  0  0
  2  1  1  0  0  0  0
  5  1  1  0  0  0  0
  6  1  1  0  0  0  0
  3  2  2  0  0  0  0
  9  2  1  0  0  0  0
  4  3  1  0  0  0  0
  7  4  1  0  0  0  0
 12  4  2  0  0  0  0
 10  7  1  0  0  0  0
 10  8  1  1  0  0  0
 11  9  2  0  0  0  0
 13 10  1  0  0  0  0
 12 11  1  0  0  0  0
  1 14  1  0  0  0  0
  8 15  1  0  0  0  0
 15 16  1  0  0  0  0
M  END
> <DATABASE_ID>
DB01191

> <DATABASE_NAME>
drugbank

> <SMILES>
CCN[C@@H](C)CC1=CC=CC(=C1)C(F)(F)F

> <INCHI_IDENTIFIER>
InChI=1S/C12H16F3N/c1-3-16-9(2)7-10-5-4-6-11(8-10)12(13,14)15/h4-6,8-9,16H,3,7H2,1-2H3/t9-/m0/s1

> <INCHI_KEY>
DBGIVFWFUFKIQN-VIFPVBQESA-N

> <FORMULA>
C12H16F3N

> <MOLECULAR_WEIGHT>
231.2573

> <EXACT_MASS>
231.123484132

> <JCHEM_ACCEPTOR_COUNT>
1

> <JCHEM_AVERAGE_POLARIZABILITY>
22.68515765531197

> <JCHEM_BIOAVAILABILITY>
1

> <JCHEM_DONOR_COUNT>
1

> <JCHEM_FORMAL_CHARGE>
0

> <JCHEM_GHOSE_FILTER>
1

> <JCHEM_IUPAC>
ethyl[(2S)-1-[3-(trifluoromethyl)phenyl]propan-2-yl]amine

> <ALOGPS_LOGP>
3.30

> <JCHEM_LOGP>
3.4714873116666665

> <ALOGPS_LOGS>
-4.03

> <JCHEM_MDDR_LIKE_RULE>
0

> <JCHEM_NUMBER_OF_RINGS>
1

> <JCHEM_PHYSIOLOGICAL_CHARGE>
1

> <JCHEM_PKA_STRONGEST_BASIC>
10.215413995825989

> <JCHEM_POLAR_SURFACE_AREA>
12.03

> <JCHEM_REFRACTIVITY>
59.2021

> <JCHEM_ROTATABLE_BOND_COUNT>
5

> <JCHEM_RULE_OF_FIVE>
1

> <ALOGPS_SOLUBILITY>
2.15e-02 g/l

> <JCHEM_TRADITIONAL_IUPAC>
dexfenfluramine

> <JCHEM_VEBER_RULE>
1

> <DRUGBANK_ID>
DB01191

> <SECONDARY_ACCESSION_NUMBERS>
APRD00648

> <DRUG_GROUPS>
approved; illicit; investigational; withdrawn

> <GENERIC_NAME>
Dexfenfluramine

> <SYNONYMS>
(+)-fenfluramine; (S)-fenfluramine; (S)-N-ethyl-1-[3-(trifluoromethyl)phenyl]propan-2-amine; d-N-ethyl-α-methyl-m-trifluoromethylphenethylamine; Dexfenfluramina; Dexfenfluramine; Dexfenfluraminum; Dextrofenfluramine

> <INTERNATIONAL_BRANDS>
Adifax; Redux

$$$$
3261
  Mrv0541 02231215192D          

 21 24  0  0  0  0            999 V2000
    1.6500   -0.4448    0.0000 Cl  0  0  0  0  0  0  0  0  0  0  0  0
    4.8158   -1.5395    0.0000 N   0  0  0  0  0  0  0  0  0  0  0  0
    5.2283    0.2678    0.0000 N   0  0  0  0  0  0  0  0  0  0  0  0
    6.1244   -1.7758    0.0000 N   0  0  0  0  0  0  0  0  0  0  0  0
    5.7351   -2.4977    0.0000 N   0  0  0  0  0  0  0  0  0  0  0  0
    4.0726   -1.1816    0.0000 C   0  0  0  0  0  0  0  0  0  0  0  0
    3.8890   -0.3773    0.0000 C   0  0  0  0  0  0  0  0  0  0  0  0
    4.4033    0.2678    0.0000 C   0  0  0  0  0  0  0  0  0  0  0  0
    5.5592   -1.1816    0.0000 C   0  0  0  0  0  0  0  0  0  0  0  0
    5.7427   -0.3773    0.0000 C   0  0  0  0  0  0  0  0  0  0  0  0
    4.0455    1.0110    0.0000 C   0  0  0  0  0  0  0  0  0  0  0  0
    3.4517   -1.7757    0.0000 C   0  0  0  0  0  0  0  0  0  0  0  0
    3.0718   -0.1113    0.0000 C   0  0  0  0  0  0  0  0  0  0  0  0
    4.9280   -2.3519    0.0000 C   0  0  0  0  0  0  0  0  0  0  0  0
    2.6286   -1.5287    0.0000 C   0  0  0  0  0  0  0  0  0  0  0  0
    2.4374   -0.6909    0.0000 C   0  0  0  0  0  0  0  0  0  0  0  0
    4.5102    1.6927    0.0000 C   0  0  0  0  0  0  0  0  0  0  0  0
    3.2227    1.0727    0.0000 C   0  0  0  0  0  0  0  0  0  0  0  0
    4.1522    2.4360    0.0000 C   0  0  0  0  0  0  0  0  0  0  0  0
    2.8648    1.8160    0.0000 C   0  0  0  0  0  0  0  0  0  0  0  0
    3.3295    2.4977    0.0000 C   0  0  0  0  0  0  0  0  0  0  0  0
  1 16  1  0  0  0  0
  2  6  1  0  0  0  0
  2  9  1  0  0  0  0
  2 14  1  0  0  0  0
  3  8  2  0  0  0  0
  3 10  1  0  0  0  0
  4  5  1  0  0  0  0
  4  9  2  0  0  0  0
  5 14  2  0  0  0  0
  6  7  2  0  0  0  0
  6 12  1  0  0  0  0
  7  8  1  0  0  0  0
  7 13  1  0  0  0  0
  8 11  1  0  0  0  0
  9 10  1  0  0  0  0
 11 17  2  0  0  0  0
 11 18  1  0  0  0  0
 12 15  2  0  0  0  0
 13 16  2  0  0  0  0
 15 16  1  0  0  0  0
 17 19  1  0  0  0  0
 18 20  2  0  0  0  0
 19 21  2  0  0  0  0
 20 21  1  0  0  0  0
M  END
> <DATABASE_ID>
DB01215

> <DATABASE_NAME>
drugbank

> <SMILES>
ClC1=CC2=C(C=C1)N1C=NN=C1CN=C2C1=CC=CC=C1

> <INCHI_IDENTIFIER>
InChI=1S/C16H11ClN4/c17-12-6-7-14-13(8-12)16(11-4-2-1-3-5-11)18-9-15-20-19-10-21(14)15/h1-8,10H,9H2

> <INCHI_KEY>
CDCHDCWJMGXXRH-UHFFFAOYSA-N

> <FORMULA>
C16H11ClN4

> <MOLECULAR_WEIGHT>
294.738

> <EXACT_MASS>
294.067224079

> <JCHEM_ACCEPTOR_COUNT>
3

> <JCHEM_AVERAGE_POLARIZABILITY>
29.827221942297236

> <JCHEM_BIOAVAILABILITY>
1

> <JCHEM_DONOR_COUNT>
0

> <JCHEM_FORMAL_CHARGE>
0

> <JCHEM_GHOSE_FILTER>
1

> <JCHEM_IUPAC>
12-chloro-9-phenyl-2,4,5,8-tetraazatricyclo[8.4.0.0²,⁶]tetradeca-1(10),3,5,8,11,13-hexaene

> <ALOGPS_LOGP>
1.72

> <JCHEM_LOGP>
2.0913

> <ALOGPS_LOGS>
-3.84

> <JCHEM_MDDR_LIKE_RULE>
0

> <JCHEM_NUMBER_OF_RINGS>
4

> <JCHEM_PHYSIOLOGICAL_CHARGE>
0

> <JCHEM_PKA_STRONGEST_ACIDIC>
18.40070520410853

> <JCHEM_PKA_STRONGEST_BASIC>
4.971016976851028

> <JCHEM_POLAR_SURFACE_AREA>
43.07

> <JCHEM_REFRACTIVITY>
94.43830000000001

> <JCHEM_ROTATABLE_BOND_COUNT>
1

> <JCHEM_RULE_OF_FIVE>
1

> <ALOGPS_SOLUBILITY>
4.23e-02 g/l

> <JCHEM_TRADITIONAL_IUPAC>
estazolam

> <JCHEM_VEBER_RULE>
0

> <DRUGBANK_ID>
DB01215

> <SECONDARY_ACCESSION_NUMBERS>
APRD00955

> <DRUG_GROUPS>
approved; illicit

> <GENERIC_NAME>
Estazolam

> <SYNONYMS>
8-chloro-6-phenyl-4H-s-triazolo(4,3-a)(1,4)benzodiazepine; Estazolam; Estazolamum

> <PRODUCTS>
Estazolam; Prosom; Prosom Tab 1mg; Prosom Tab 2mg

> <INTERNATIONAL_BRANDS>
Esilgan; Eurodin; Nuctalon

$$$$
1230
  Mrv0541 02231215202D          

 13 14  0  0  1  0            999 V2000
    2.3888    0.5203    0.0000 O   0  0  0  0  0  0  0  0  0  0  0  0
    4.5083    0.2653    0.0000 O   0  0  0  0  0  0  0  0  0  0  0  0
    3.4687    1.3049    0.0000 N   0  0  0  0  0  0  0  0  0  0  0  0
    2.1587    1.9724    0.0000 N   0  0  0  0  0  0  0  0  0  0  0  0
    3.0562    0.0354    0.0000 C   0  0  0  0  0  0  0  0  0  0  0  0
    3.0562   -0.7896    0.0000 C   0  0  0  0  0  0  0  0  0  0  0  0
    3.7236    0.5203    0.0000 C   0  0  0  0  0  0  0  0  0  0  0  0
    3.7707   -1.2021    0.0000 C   0  0  0  0  0  0  0  0  0  0  0  0
    2.3417   -1.2021    0.0000 C   0  0  0  0  0  0  0  0  0  0  0  0
    2.6437    1.3049    0.0000 C   0  0  0  0  0  0  0  0  0  0  0  0
    3.7707   -2.0272    0.0000 C   0  0  0  0  0  0  0  0  0  0  0  0
    2.3417   -2.0272    0.0000 C   0  0  0  0  0  0  0  0  0  0  0  0
    3.0562   -2.4397    0.0000 C   0  0  0  0  0  0  0  0  0  0  0  0
  1  5  1  0  0  0  0
  1 10  1  0  0  0  0
  2  7  2  0  0  0  0
  3  7  1  0  0  0  0
  3 10  2  0  0  0  0
  4 10  1  0  0  0  0
  5  6  1  0  0  0  0
  5  7  1  0  0  0  0
  6  8  2  0  0  0  0
  6  9  1  0  0  0  0
  8 11  1  0  0  0  0
  9 12  2  0  0  0  0
 11 13  2  0  0  0  0
 12 13  1  0  0  0  0
M  END
> <DATABASE_ID>
DB01230

> <DATABASE_NAME>
drugbank

> <SMILES>
NC1=NC(=O)C(O1)C1=CC=CC=C1

> <INCHI_IDENTIFIER>
InChI=1S/C9H8N2O2/c10-9-11-8(12)7(13-9)6-4-2-1-3-5-6/h1-5,7H,(H2,10,11,12)

> <INCHI_KEY>
NRNCYVBFPDDJNE-UHFFFAOYSA-N

> <FORMULA>
C9H8N2O2

> <MOLECULAR_WEIGHT>
176.172

> <EXACT_MASS>
176.05857751

> <JCHEM_ACCEPTOR_COUNT>
4

> <JCHEM_AVERAGE_POLARIZABILITY>
17.040561196005214

> <JCHEM_BIOAVAILABILITY>
1

> <JCHEM_DONOR_COUNT>
1

> <JCHEM_FORMAL_CHARGE>
0

> <JCHEM_GHOSE_FILTER>
1

> <JCHEM_IUPAC>
2-amino-5-phenyl-4,5-dihydro-1,3-oxazol-4-one

> <ALOGPS_LOGP>
0.52

> <JCHEM_LOGP>
0.800027732

> <ALOGPS_LOGS>
-2.26

> <JCHEM_MDDR_LIKE_RULE>
0

> <JCHEM_NUMBER_OF_RINGS>
2

> <JCHEM_PHYSIOLOGICAL_CHARGE>
0

> <JCHEM_PKA_STRONGEST_ACIDIC>
14.953646792407326

> <JCHEM_PKA_STRONGEST_BASIC>
0.9878962542048974

> <JCHEM_POLAR_SURFACE_AREA>
64.67999999999999

> <JCHEM_REFRACTIVITY>
45.70230000000001

> <JCHEM_ROTATABLE_BOND_COUNT>
1

> <JCHEM_RULE_OF_FIVE>
1

> <ALOGPS_SOLUBILITY>
9.79e-01 g/l

> <JCHEM_TRADITIONAL_IUPAC>
pemoline

> <JCHEM_VEBER_RULE>
0

> <DRUGBANK_ID>
DB01230

> <SECONDARY_ACCESSION_NUMBERS>
APRD01169

> <DRUG_GROUPS>
approved; illicit; investigational; withdrawn

> <GENERIC_NAME>
Pemoline

> <SYNONYMS>
pemolina; Pemoline

> <PRODUCTS>
Cylert

> <INTERNATIONAL_BRANDS>
Betanamin; Ceractiv; Tradon

$$$$
1351
  Mrv0541 02231215242D          

 16 16  0  0  0  0            999 V2000
    4.5080   -0.1915    0.0000 O   0  0  0  0  0  0  0  0  0  0  0  0
    1.6500   -0.1915    0.0000 O   0  0  0  0  0  0  0  0  0  0  0  0
    3.0791   -2.6665    0.0000 O   0  0  0  0  0  0  0  0  0  0  0  0
    3.7935   -1.4290    0.0000 N   0  0  0  0  0  0  0  0  0  0  0  0
    2.3645   -1.4290    0.0000 N   0  0  0  0  0  0  0  0  0  0  0  0
    3.0791   -0.1915    0.0000 C   0  0  0  0  0  0  0  0  0  0  0  0
    3.4916    0.5231    0.0000 C   0  0  0  0  0  0  0  0  0  0  0  0
    3.0791    1.2375    0.0000 C   0  0  0  0  0  0  0  0  0  0  0  0
    2.6665    0.5231    0.0000 C   0  0  0  0  0  0  0  0  0  0  0  0
    3.4916    1.9520    0.0000 C   0  0  0  0  0  0  0  0  0  0  0  0
    3.7935   -0.6040    0.0000 C   0  0  0  0  0  0  0  0  0  0  0  0
    2.3645   -0.6040    0.0000 C   0  0  0  0  0  0  0  0  0  0  0  0
    1.8415    0.5231    0.0000 C   0  0  0  0  0  0  0  0  0  0  0  0
    4.3166    1.9520    0.0000 C   0  0  0  0  0  0  0  0  0  0  0  0
    3.0791    2.6665    0.0000 C   0  0  0  0  0  0  0  0  0  0  0  0
    3.0791   -1.8415    0.0000 C   0  0  0  0  0  0  0  0  0  0  0  0
  1 11  2  0  0  0  0
  2 12  2  0  0  0  0
  3 16  2  0  0  0  0
  4 11  1  0  0  0  0
  4 16  1  0  0  0  0
  5 12  1  0  0  0  0
  5 16  1  0  0  0  0
  6  7  1  0  0  0  0
  6  9  1  0  0  0  0
  6 11  1  0  0  0  0
  6 12  1  0  0  0  0
  7  8  1  0  0  0  0
  8 10  1  0  0  0  0
  9 13  1  0  0  0  0
 10 14  1  0  0  0  0
 10 15  1  0  0  0  0
M  END
> <DATABASE_ID>
DB01351

> <DATABASE_NAME>
drugbank

> <SMILES>
CCC1(CCC(C)C)C(=O)NC(=O)NC1=O

> <INCHI_IDENTIFIER>
InChI=1S/C11H18N2O3/c1-4-11(6-5-7(2)3)8(14)12-10(16)13-9(11)15/h7H,4-6H2,1-3H3,(H2,12,13,14,15,16)

> <INCHI_KEY>
VIROVYVQCGLCII-UHFFFAOYSA-N

> <FORMULA>
C11H18N2O3

> <MOLECULAR_WEIGHT>
226.2722

> <EXACT_MASS>
226.131742452

> <JCHEM_ACCEPTOR_COUNT>
3

> <JCHEM_AVERAGE_POLARIZABILITY>
23.448490421065408

> <JCHEM_BIOAVAILABILITY>
1

> <JCHEM_DONOR_COUNT>
2

> <JCHEM_FORMAL_CHARGE>
0

> <JCHEM_GHOSE_FILTER>
1

> <JCHEM_IUPAC>
5-ethyl-5-(3-methylbutyl)-1,3-diazinane-2,4,6-trione

> <ALOGPS_LOGP>
1.87

> <JCHEM_LOGP>
1.8932512466666667

> <ALOGPS_LOGS>
-2.40

> <JCHEM_MDDR_LIKE_RULE>
0

> <JCHEM_NUMBER_OF_RINGS>
1

> <JCHEM_PHYSIOLOGICAL_CHARGE>
0

> <JCHEM_PKA>
12.15486149168678

> <JCHEM_PKA_STRONGEST_ACIDIC>
8.484748322088915

> <JCHEM_POLAR_SURFACE_AREA>
75.27

> <JCHEM_REFRACTIVITY>
58.0029

> <JCHEM_ROTATABLE_BOND_COUNT>
4

> <JCHEM_RULE_OF_FIVE>
1

> <ALOGPS_SOLUBILITY>
8.97e-01 g/l

> <JCHEM_TRADITIONAL_IUPAC>
amobarbital

> <JCHEM_VEBER_RULE>
0

> <DRUGBANK_ID>
DB01351

> <DRUG_GROUPS>
approved; illicit

> <GENERIC_NAME>
Amobarbital

> <SYNONYMS>
5-ethyl-5-(3-methylbutyl)-2,4,6(1H,3H,5H)-pyrimidinetrione; 5-ethyl-5-(3-methylbutyl)barbituric acid; 5-ethyl-5-isoamylbarbituric acid; 5-ethyl-5-isopentylbarbituric acid; Amobarbital; Amobarbitale; Amylobarbitone; Barbamil; Barbamyl

> <PRODUCTS>
Amytal Sodium; Amytal Sodium 500mg; Amytal Sodium Cap 60mg; Amytal Sodium Pulvule 222 0.2gm; Tuinal Pulvule 303; Tuinal Pulvule 304

> <INTERNATIONAL_BRANDS>
Amytal; Isomytal

> <SALTS>
Amobarbital sodium

$$$$

  Mrv0541 02231215242D          

 15 15  0  0  0  0            999 V2000
    1.8569   -2.6352    0.0000 C   0  0  0  0  0  0  0  0  0  0  0  0
    2.2695   -1.9208    0.0000 C   0  0  0  0  0  0  0  0  0  0  0  0
    1.8569   -1.2063    0.0000 C   0  0  0  0  0  0  0  0  0  0  0  0
    3.0945   -1.9208    0.0000 C   0  0  0  0  0  0  0  0  0  0  0  0
    2.6820   -2.6352    0.0000 C   0  0  0  0  0  0  0  0  0  0  0  0
    3.0945   -3.3497    0.0000 C   0  0  0  0  0  0  0  0  0  0  0  0
    3.0945   -1.0958    0.0000 C   0  0  0  0  0  0  0  0  0  0  0  0
    2.3800   -0.6832    0.0000 O   0  0  0  0  0  0  0  0  0  0  0  0
    3.8089   -0.6832    0.0000 N   0  0  0  0  0  0  0  0  0  0  0  0
    4.5234   -1.0958    0.0000 C   0  0  0  0  0  0  0  0  0  0  0  0
    5.2379   -0.6832    0.0000 O   0  0  0  0  0  0  0  0  0  0  0  0
    4.5234   -1.9208    0.0000 N   0  0  0  0  0  0  0  0  0  0  0  0
    3.8089   -2.3333    0.0000 C   0  0  0  0  0  0  0  0  0  0  0  0
    3.8089   -3.1583    0.0000 O   0  0  0  0  0  0  0  0  0  0  0  0
    2.6820   -4.0642    0.0000 C   0  0  0  0  0  0  0  0  0  0  0  0
  1  2  1  0  0  0  0
  2  3  1  0  0  0  0
  2  4  1  0  0  0  0
  4  5  1  0  0  0  0
  4  7  1  0  0  0  0
  4 13  1  0  0  0  0
  5  6  1  0  0  0  0
  7  8  2  0  0  0  0
  7  9  1  0  0  0  0
  9 10  1  0  0  0  0
 10 11  2  0  0  0  0
 10 12  1  0  0  0  0
 12 13  1  0  0  0  0
 13 14  2  0  0  0  0
 15  6  2  0  0  0  0
M  END
> <DATABASE_ID>
DB01352

> <DATABASE_NAME>
drugbank

> <SMILES>
CC(C)C1(CC=C)C(=O)NC(=O)NC1=O

> <INCHI_IDENTIFIER>
InChI=1S/C10H14N2O3/c1-4-5-10(6(2)3)7(13)11-9(15)12-8(10)14/h4,6H,1,5H2,2-3H3,(H2,11,12,13,14,15)

> <INCHI_KEY>
UORJNBVJVRLXMQ-UHFFFAOYSA-N

> <FORMULA>
C10H14N2O3

> <MOLECULAR_WEIGHT>
210.2298

> <EXACT_MASS>
210.100442324

> <JCHEM_ACCEPTOR_COUNT>
3

> <JCHEM_AVERAGE_POLARIZABILITY>
20.498060321197006

> <JCHEM_BIOAVAILABILITY>
1

> <JCHEM_DONOR_COUNT>
2

> <JCHEM_FORMAL_CHARGE>
0

> <JCHEM_GHOSE_FILTER>
1

> <JCHEM_IUPAC>
5-(prop-2-en-1-yl)-5-(propan-2-yl)-1,3-diazinane-2,4,6-trione

> <ALOGPS_LOGP>
1.24

> <JCHEM_LOGP>
1.144694595333333

> <ALOGPS_LOGS>
-1.61

> <JCHEM_MDDR_LIKE_RULE>
0

> <JCHEM_NUMBER_OF_RINGS>
1

> <JCHEM_PHYSIOLOGICAL_CHARGE>
0

> <JCHEM_PKA>
12.148448193028818

> <JCHEM_PKA_STRONGEST_ACIDIC>
8.478869260649752

> <JCHEM_POLAR_SURFACE_AREA>
75.27000000000001

> <JCHEM_REFRACTIVITY>
53.446

> <JCHEM_ROTATABLE_BOND_COUNT>
3

> <JCHEM_RULE_OF_FIVE>
1

> <ALOGPS_SOLUBILITY>
5.17e+00 g/l

> <JCHEM_TRADITIONAL_IUPAC>
aprobarbital

> <JCHEM_VEBER_RULE>
0

> <DRUGBANK_ID>
DB01352

> <DRUG_GROUPS>
experimental; illicit

> <GENERIC_NAME>
Aprobarbital

> <SYNONYMS>
5-(1-methylethyl)-5-(2-propenyl)-2,4,6(1H,3H,5H)-pyrimidinetrione; 5-allyl-5-isopropylbarbituric acid; 5-allyl-5-isopropylpyrimidine-2,4,6(1H,3H,5H)-trione; 5-isopropyl-5-allylbarbituric acid; Allypropymal; Aprobarbital; Aprobarbitale; Aprobarbitalum

> <INTERNATIONAL_BRANDS>
Alurate

> <SALTS>
Aprobarbital sodium

$$$$
1353
  Mrv0541 02231215242D          

 15 15  0  0  0  0            999 V2000
    1.6500   -0.1915    0.0000 O   0  0  0  0  0  0  0  0  0  0  0  0
    4.5080   -0.1915    0.0000 O   0  0  0  0  0  0  0  0  0  0  0  0
    3.0791   -2.6665    0.0000 O   0  0  0  0  0  0  0  0  0  0  0  0
    2.3645   -1.4290    0.0000 N   0  0  0  0  0  0  0  0  0  0  0  0
    3.7935   -1.4290    0.0000 N   0  0  0  0  0  0  0  0  0  0  0  0
    3.0791   -0.1915    0.0000 C   0  0  0  0  0  0  0  0  0  0  0  0
    3.4916    0.5231    0.0000 C   0  0  0  0  0  0  0  0  0  0  0  0
    2.6665    0.5231    0.0000 C   0  0  0  0  0  0  0  0  0  0  0  0
    3.0791    1.2375    0.0000 C   0  0  0  0  0  0  0  0  0  0  0  0
    2.3645   -0.6040    0.0000 C   0  0  0  0  0  0  0  0  0  0  0  0
    3.7935   -0.6040    0.0000 C   0  0  0  0  0  0  0  0  0  0  0  0
    3.4916    1.9520    0.0000 C   0  0  0  0  0  0  0  0  0  0  0  0
    1.8415    0.5231    0.0000 C   0  0  0  0  0  0  0  0  0  0  0  0
    3.0791   -1.8415    0.0000 C   0  0  0  0  0  0  0  0  0  0  0  0
    3.0791    2.6665    0.0000 C   0  0  0  0  0  0  0  0  0  0  0  0
  1 10  2  0  0  0  0
  2 11  2  0  0  0  0
  3 14  2  0  0  0  0
  4 10  1  0  0  0  0
  4 14  1  0  0  0  0
  5 11  1  0  0  0  0
  5 14  1  0  0  0  0
  6  7  1  0  0  0  0
  6  8  1  0  0  0  0
  6 10  1  0  0  0  0
  6 11  1  0  0  0  0
  7  9  1  0  0  0  0
  8 13  1  0  0  0  0
  9 12  1  0  0  0  0
 12 15  1  0  0  0  0
M  END
> <DATABASE_ID>
DB01353

> <DATABASE_NAME>
drugbank

> <SMILES>
CCCCC1(CC)C(=O)NC(=O)NC1=O

> <INCHI_IDENTIFIER>
InChI=1S/C10H16N2O3/c1-3-5-6-10(4-2)7(13)11-9(15)12-8(10)14/h3-6H2,1-2H3,(H2,11,12,13,14,15)

> <INCHI_KEY>
STDBAQMTJLUMFW-UHFFFAOYSA-N

> <FORMULA>
C10H16N2O3

> <MOLECULAR_WEIGHT>
212.2456

> <EXACT_MASS>
212.116092388

> <JCHEM_ACCEPTOR_COUNT>
3

> <JCHEM_AVERAGE_POLARIZABILITY>
21.615960524107212

> <JCHEM_BIOAVAILABILITY>
1

> <JCHEM_DONOR_COUNT>
2

> <JCHEM_FORMAL_CHARGE>
0

> <JCHEM_GHOSE_FILTER>
1

> <JCHEM_IUPAC>
5-butyl-5-ethyl-1,3-diazinane-2,4,6-trione

> <ALOGPS_LOGP>
1.65

> <JCHEM_LOGP>
1.606232150333333

> <ALOGPS_LOGS>
-2.22

> <JCHEM_MDDR_LIKE_RULE>
0

> <JCHEM_NUMBER_OF_RINGS>
1

> <JCHEM_PHYSIOLOGICAL_CHARGE>
0

> <JCHEM_PKA>
12.154863311944384

> <JCHEM_PKA_STRONGEST_ACIDIC>
8.484749988910163

> <JCHEM_POLAR_SURFACE_AREA>
75.27

> <JCHEM_REFRACTIVITY>
53.45429999999999

> <JCHEM_ROTATABLE_BOND_COUNT>
4

> <JCHEM_RULE_OF_FIVE>
1

> <ALOGPS_SOLUBILITY>
1.27e+00 g/l

> <JCHEM_TRADITIONAL_IUPAC>
butethal

> <JCHEM_VEBER_RULE>
0

> <DRUGBANK_ID>
DB01353

> <DRUG_GROUPS>
approved; illicit

> <GENERIC_NAME>
Butobarbital

> <SYNONYMS>
Butethal; Butobarbital; Butobarbitone

> <INTERNATIONAL_BRANDS>
Neonal; Soneryl

$$$$
1433
  Mrv0541 02241213012D          

 26 27  0  0  1  0            999 V2000
    5.8950   -0.7144    0.0000 O   0  0  0  0  0  0  0  0  0  0  0  0
    7.1325    0.0000    0.0000 O   0  0  0  0  0  0  0  0  0  0  0  0
    2.4253   -0.2482    0.0000 N   0  0  0  0  0  0  0  0  0  0  0  0
    4.6575    0.0000    0.0000 C   0  0  0  0  0  0  0  0  0  0  0  0
    3.8325    0.0000    0.0000 C   0  0  0  0  0  0  0  0  0  0  0  0
    5.4825    0.0000    0.0000 C   0  0  0  0  0  0  0  0  0  0  0  0
    3.0572    0.2822    0.0000 C   0  0  0  0  0  0  0  0  0  0  0  0
    4.6575    0.8250    0.0000 C   0  0  0  0  0  0  0  0  0  0  0  0
    4.6575   -0.8250    0.0000 C   0  0  0  0  0  0  0  0  0  0  0  0
    5.8950    0.7144    0.0000 C   0  0  0  0  0  0  0  0  0  0  0  0
    2.9140    1.0946    0.0000 C   0  0  0  0  0  0  0  0  0  0  0  0
    3.9430    1.2375    0.0000 C   0  0  0  0  0  0  0  0  0  0  0  0
    5.3720   -1.2375    0.0000 C   0  0  0  0  0  0  0  0  0  0  0  0
    5.3720    1.2375    0.0000 C   0  0  0  0  0  0  0  0  0  0  0  0
    3.9430   -1.2375    0.0000 C   0  0  0  0  0  0  0  0  0  0  0  0
    6.7200    0.7144    0.0000 C   0  0  0  0  0  0  0  0  0  0  0  0
    1.6500    0.0341    0.0000 C   0  0  0  0  0  0  0  0  0  0  0  0
    2.5685   -1.0605    0.0000 C   0  0  0  0  0  0  0  0  0  0  0  0
    3.9430    2.0625    0.0000 C   0  0  0  0  0  0  0  0  0  0  0  0
    5.3720   -2.0625    0.0000 C   0  0  0  0  0  0  0  0  0  0  0  0
    5.3720    2.0625    0.0000 C   0  0  0  0  0  0  0  0  0  0  0  0
    3.9430   -2.0625    0.0000 C   0  0  0  0  0  0  0  0  0  0  0  0
    6.7200   -0.7144    0.0000 C   0  0  0  0  0  0  0  0  0  0  0  0
    4.6575    2.4750    0.0000 C   0  0  0  0  0  0  0  0  0  0  0  0
    4.6575   -2.4750    0.0000 C   0  0  0  0  0  0  0  0  0  0  0  0
    7.1325   -1.4290    0.0000 C   0  0  0  0  0  0  0  0  0  0  0  0
  1  6  1  0  0  0  0
  1 23  1  0  0  0  0
  2 23  2  0  0  0  0
  3  7  1  0  0  0  0
  3 17  1  0  0  0  0
  3 18  1  0  0  0  0
  4  5  1  0  0  0  0
  4  6  1  0  0  0  0
  4  8  1  0  0  0  0
  4  9  1  0  0  0  0
  5  7  1  0  0  0  0
  6 10  1  0  0  0  0
  7 11  1  0  0  0  0
  8 12  2  0  0  0  0
  8 14  1  0  0  0  0
  9 13  2  0  0  0  0
  9 15  1  0  0  0  0
 10 16  1  0  0  0  0
 12 19  1  0  0  0  0
 13 20  1  0  0  0  0
 14 21  2  0  0  0  0
 15 22  2  0  0  0  0
 19 24  2  0  0  0  0
 20 25  2  0  0  0  0
 21 24  1  0  0  0  0
 22 25  1  0  0  0  0
 23 26  1  0  0  0  0
M  END
> <DATABASE_ID>
DB01433

> <DATABASE_NAME>
drugbank

> <SMILES>
CCC(OC(C)=O)C(CC(C)N(C)C)(C1=CC=CC=C1)C1=CC=CC=C1

> <INCHI_IDENTIFIER>
InChI=1S/C23H31NO2/c1-6-22(26-19(3)25)23(17-18(2)24(4)5,20-13-9-7-10-14-20)21-15-11-8-12-16-21/h7-16,18,22H,6,17H2,1-5H3

> <INCHI_KEY>
XBMIVRRWGCYBTQ-UHFFFAOYSA-N

> <FORMULA>
C23H31NO2

> <MOLECULAR_WEIGHT>
353.4977

> <EXACT_MASS>
353.235479241

> <JCHEM_ACCEPTOR_COUNT>
2

> <JCHEM_AVERAGE_POLARIZABILITY>
40.82408278818341

> <JCHEM_BIOAVAILABILITY>
1

> <JCHEM_DONOR_COUNT>
0

> <JCHEM_FORMAL_CHARGE>
0

> <JCHEM_GHOSE_FILTER>
1

> <JCHEM_IUPAC>
6-(dimethylamino)-4,4-diphenylheptan-3-yl acetate

> <ALOGPS_LOGP>
4.78

> <JCHEM_LOGP>
4.884769339999999

> <ALOGPS_LOGS>
-5.30

> <JCHEM_MDDR_LIKE_RULE>
0

> <JCHEM_NUMBER_OF_RINGS>
2

> <JCHEM_PHYSIOLOGICAL_CHARGE>
1

> <JCHEM_PKA_STRONGEST_BASIC>
9.869489670661055

> <JCHEM_POLAR_SURFACE_AREA>
29.54

> <JCHEM_REFRACTIVITY>
117.85760000000002

> <JCHEM_ROTATABLE_BOND_COUNT>
9

> <JCHEM_RULE_OF_FIVE>
1

> <ALOGPS_SOLUBILITY>
1.79e-03 g/l

> <JCHEM_TRADITIONAL_IUPAC>
methadyl acetate

> <JCHEM_VEBER_RULE>
1

> <DRUGBANK_ID>
DB01433

> <DRUG_GROUPS>
experimental; illicit

> <GENERIC_NAME>
Methadyl acetate

> <SYNONYMS>
Acetilmetadol; Acetylmethadol; Acetylmethadolum

> <SALTS>
Methadyl acetate hydrochloride

$$$$
1434
  Mrv0541 02231215292D          

 24 27  0  0  1  0            999 V2000
   14.7660   -9.2663    0.0000 C   0  0  2  0  0  0  0  0  0  0  0  0
   15.4807   -8.8579    0.0000 C   0  0  0  0  0  0  0  0  0  0  0  0
   14.7590  -10.0936    0.0000 C   0  0  2  0  0  0  0  0  0  0  0  0
   14.0583   -8.8543    0.0000 C   0  0  0  0  0  0  0  0  0  0  0  0
   14.7625   -8.4426    0.0000 C   0  0  0  0  0  0  0  0  0  0  0  0
   16.1954   -9.2734    0.0000 C   0  0  0  0  0  0  0  0  0  0  0  0
   14.0443  -10.5020    0.0000 C   0  0  1  0  0  0  0  0  0  0  0  0
   16.1884  -10.1006    0.0000 C   0  0  0  0  0  0  0  0  0  0  0  0
   13.3402   -9.2593    0.0000 C   0  0  0  0  0  0  0  0  0  0  0  0
   13.3331  -10.0831    0.0000 C   0  0  2  0  0  0  0  0  0  0  0  0
   14.0443  -11.3295    0.0000 C   0  0  0  0  0  0  0  0  0  0  0  0
   12.6183  -10.4915    0.0000 C   0  0  2  0  0  0  0  0  0  0  0  0
   13.3260  -11.7380    0.0000 C   0  0  0  0  0  0  0  0  0  0  0  0
   12.6149  -11.3224    0.0000 C   0  0  0  0  0  0  0  0  0  0  0  0
   11.9072  -10.0795    0.0000 C   0  0  0  0  0  0  0  0  0  0  0  0
   11.9072  -11.7344    0.0000 C   0  0  0  0  0  0  0  0  0  0  0  0
   11.1924  -10.4915    0.0000 C   0  0  0  0  0  0  0  0  0  0  0  0
   11.1924  -11.3224    0.0000 C   0  0  0  0  0  0  0  0  0  0  0  0
   10.4743  -11.7309    0.0000 O   0  0  0  0  0  0  0  0  0  0  0  0
   14.7520  -10.9140    0.0000 H   0  0  0  0  0  0  0  0  0  0  0  0
   14.0372   -9.6712    0.0000 H   0  0  0  0  0  0  0  0  0  0  0  0
   13.3260  -10.9070    0.0000 H   0  0  0  0  0  0  0  0  0  0  0  0
   12.6112   -9.6677    0.0000 H   0  0  0  0  0  0  0  0  0  0  0  0
   15.4837   -8.0024    0.0000 O   0  0  0  0  0  0  0  0  0  0  0  0
  1  2  1  0  0  0  0
  1  3  1  0  0  0  0
  1  4  1  0  0  0  0
  1  5  1  1  0  0  0
  2  6  1  0  0  0  0
  3  7  1  0  0  0  0
  3  8  1  0  0  0  0
  4  9  1  0  0  0  0
  7 10  1  0  0  0  0
  7 11  1  0  0  0  0
 10 12  1  0  0  0  0
 11 13  1  0  0  0  0
 12 14  1  0  0  0  0
 12 15  1  0  0  0  0
 14 16  2  0  0  0  0
 15 17  1  0  0  0  0
 16 18  1  0  0  0  0
 18 19  2  0  0  0  0
  6  8  1  0  0  0  0
  9 10  1  0  0  0  0
 13 14  1  0  0  0  0
 17 18  1  0  0  0  0
  3 20  1  6  0  0  0
  7 21  1  1  0  0  0
 10 22  1  6  0  0  0
 12 23  1  1  0  0  0
  2 24  2  0  0  0  0
M  END
> <DATABASE_ID>
DB01434

> <DATABASE_NAME>
drugbank

> <SMILES>
[H][C@@]12CCC(=O)[C@@]1(C)CC[C@]1([H])[C@@]3([H])CCC(=O)C=C3CC[C@@]21[H]

> <INCHI_IDENTIFIER>
InChI=1S/C18H24O2/c1-18-9-8-14-13-5-3-12(19)10-11(13)2-4-15(14)16(18)6-7-17(18)20/h10,13-16H,2-9H2,1H3/t13-,14+,15+,16-,18-/m0/s1

> <INCHI_KEY>
JRIZOGLBRPZBLQ-QXUSFIETSA-N

> <FORMULA>
C18H24O2

> <MOLECULAR_WEIGHT>
272.382

> <EXACT_MASS>
272.177630012

> <JCHEM_ACCEPTOR_COUNT>
2

> <JCHEM_AVERAGE_POLARIZABILITY>
31.542685631813868

> <JCHEM_BIOAVAILABILITY>
1

> <JCHEM_DONOR_COUNT>
0

> <JCHEM_FORMAL_CHARGE>
0

> <JCHEM_GHOSE_FILTER>
1

> <JCHEM_IUPAC>
(1S,2R,10R,11S,15S)-15-methyltetracyclo[8.7.0.0²,⁷.0¹¹,¹⁵]heptadec-6-ene-5,14-dione

> <ALOGPS_LOGP>
2.53

> <JCHEM_LOGP>
3.628903883333334

> <ALOGPS_LOGS>
-3.78

> <JCHEM_MDDR_LIKE_RULE>
0

> <JCHEM_NUMBER_OF_RINGS>
4

> <JCHEM_PHYSIOLOGICAL_CHARGE>
0

> <JCHEM_PKA_STRONGEST_ACIDIC>
19.193369890948418

> <JCHEM_PKA_STRONGEST_BASIC>
-4.727366915285105

> <JCHEM_POLAR_SURFACE_AREA>
34.14

> <JCHEM_REFRACTIVITY>
79.13239999999998

> <JCHEM_ROTATABLE_BOND_COUNT>
0

> <JCHEM_RULE_OF_FIVE>
1

> <ALOGPS_SOLUBILITY>
4.54e-02 g/l

> <JCHEM_TRADITIONAL_IUPAC>
19-norandrostenedione

> <JCHEM_VEBER_RULE>
1

> <DRUGBANK_ID>
DB01434

> <DRUG_GROUPS>
experimental; illicit

> <GENERIC_NAME>
19-norandrostenedione

> <SYNONYMS>
delta,4-Estrene-3,17-dione; delta4-Estrene-3,17-dione

$$$$
1437
  Mrv0541 02231215292D          

 16 17  0  0  1  0            999 V2000
    1.6500    0.1658    0.0000 O   0  0  0  0  0  0  0  0  0  0  0  0
    3.0791   -2.3092    0.0000 O   0  0  0  0  0  0  0  0  0  0  0  0
    2.3645   -1.0717    0.0000 N   0  0  0  0  0  0  0  0  0  0  0  0
    3.0791    0.1658    0.0000 C   0  0  0  0  0  0  0  0  0  0  0  0
    3.7935   -0.2467    0.0000 C   0  0  0  0  0  0  0  0  0  0  0  0
    2.6665    0.8803    0.0000 C   0  0  0  0  0  0  0  0  0  0  0  0
    3.4916    0.8803    0.0000 C   0  0  0  0  0  0  0  0  0  0  0  0
    3.7935   -1.0717    0.0000 C   0  0  0  0  0  0  0  0  0  0  0  0
    2.3645   -0.2467    0.0000 C   0  0  0  0  0  0  0  0  0  0  0  0
    3.0791   -1.4842    0.0000 C   0  0  0  0  0  0  0  0  0  0  0  0
    1.8415    0.8803    0.0000 C   0  0  0  0  0  0  0  0  0  0  0  0
    3.0791    1.5948    0.0000 C   0  0  0  0  0  0  0  0  0  0  0  0
    4.3166    0.8803    0.0000 C   0  0  0  0  0  0  0  0  0  0  0  0
    3.4916    2.3092    0.0000 C   0  0  0  0  0  0  0  0  0  0  0  0
    4.7291    1.5948    0.0000 C   0  0  0  0  0  0  0  0  0  0  0  0
    4.3166    2.3092    0.0000 C   0  0  0  0  0  0  0  0  0  0  0  0
  1  9  2  0  0  0  0
  2 10  2  0  0  0  0
  3  9  1  0  0  0  0
  3 10  1  0  0  0  0
  4  5  1  0  0  0  0
  4  6  1  0  0  0  0
  4  7  1  0  0  0  0
  4  9  1  0  0  0  0
  5  8  1  0  0  0  0
  6 11  1  0  0  0  0
  7 12  2  0  0  0  0
  7 13  1  0  0  0  0
  8 10  1  0  0  0  0
 12 14  1  0  0  0  0
 13 15  2  0  0  0  0
 14 16  2  0  0  0  0
 15 16  1  0  0  0  0
M  END
> <DATABASE_ID>
DB01437

> <DATABASE_NAME>
drugbank

> <SMILES>
CCC1(CCC(=O)NC1=O)C1=CC=CC=C1

> <INCHI_IDENTIFIER>
InChI=1S/C13H15NO2/c1-2-13(10-6-4-3-5-7-10)9-8-11(15)14-12(13)16/h3-7H,2,8-9H2,1H3,(H,14,15,16)

> <INCHI_KEY>
JMBQKKAJIKAWKF-UHFFFAOYSA-N

> <FORMULA>
C13H15NO2

> <MOLECULAR_WEIGHT>
217.2637

> <EXACT_MASS>
217.110278729

> <JCHEM_ACCEPTOR_COUNT>
2

> <JCHEM_AVERAGE_POLARIZABILITY>
23.15269032789863

> <JCHEM_BIOAVAILABILITY>
1

> <JCHEM_DONOR_COUNT>
1

> <JCHEM_FORMAL_CHARGE>
0

> <JCHEM_GHOSE_FILTER>
1

> <JCHEM_IUPAC>
3-ethyl-3-phenylpiperidine-2,6-dione

> <ALOGPS_LOGP>
1.89

> <JCHEM_LOGP>
2.1284703219999996

> <ALOGPS_LOGS>
-2.82

> <JCHEM_MDDR_LIKE_RULE>
0

> <JCHEM_NUMBER_OF_RINGS>
2

> <JCHEM_PHYSIOLOGICAL_CHARGE>
0

> <JCHEM_PKA_STRONGEST_ACIDIC>
11.69199505777537

> <JCHEM_PKA_STRONGEST_BASIC>
-6.688421198387311

> <JCHEM_POLAR_SURFACE_AREA>
46.17

> <JCHEM_REFRACTIVITY>
60.65390000000001

> <JCHEM_ROTATABLE_BOND_COUNT>
2

> <JCHEM_RULE_OF_FIVE>
1

> <ALOGPS_SOLUBILITY>
3.27e-01 g/l

> <JCHEM_TRADITIONAL_IUPAC>
glutethimide

> <JCHEM_VEBER_RULE>
0

> <DRUGBANK_ID>
DB01437

> <DRUG_GROUPS>
approved; illicit

> <GENERIC_NAME>
Glutethimide

> <SYNONYMS>
2-Ethyl-2-phenylglutarimide; Glutethimide; Glutetimida

> <INTERNATIONAL_BRANDS>
Doriden; Elrodorm; Glimid; Glutethimid; Noxyron

$$$$
1439
  Mrv0541 02231215292D          

 25 27  0  0  1  0            999 V2000
    1.6971   -2.9440    0.0000 S   0  0  0  0  0  0  0  0  0  0  0  0
    1.6500    2.0786    0.0000 O   0  0  0  0  0  0  0  0  0  0  0  0
    3.0791   -0.3965    0.0000 N   0  0  0  0  0  0  0  0  0  0  0  0
    3.0791    2.0786    0.0000 N   0  0  0  0  0  0  0  0  0  0  0  0
    3.0791    1.2535    0.0000 C   0  0  0  0  0  0  0  0  0  0  0  0
    2.3645    0.8410    0.0000 C   0  0  0  0  0  0  0  0  0  0  0  0
    3.7935    0.8410    0.0000 C   0  0  0  0  0  0  0  0  0  0  0  0
    2.3645    0.0160    0.0000 C   0  0  0  0  0  0  0  0  0  0  0  0
    3.7935    0.0160    0.0000 C   0  0  0  0  0  0  0  0  0  0  0  0
    1.6500    1.2535    0.0000 C   0  0  0  0  0  0  0  0  0  0  0  0
    3.0791   -1.2215    0.0000 C   0  0  0  0  0  0  0  0  0  0  0  0
    2.3645   -1.6340    0.0000 C   0  0  0  0  0  0  0  0  0  0  0  0
    3.7935    2.4911    0.0000 C   0  0  0  0  0  0  0  0  0  0  0  0
    2.3645    2.4911    0.0000 C   0  0  0  0  0  0  0  0  0  0  0  0
    2.3645    3.3161    0.0000 C   0  0  0  0  0  0  0  0  0  0  0  0
    2.3645   -2.4590    0.0000 C   0  0  0  0  0  0  0  0  0  0  0  0
    3.7935    3.3161    0.0000 C   0  0  0  0  0  0  0  0  0  0  0  0
    4.5080    2.0786    0.0000 C   0  0  0  0  0  0  0  0  0  0  0  0
    1.6500    3.7286    0.0000 C   0  0  0  0  0  0  0  0  0  0  0  0
    4.5080    3.7286    0.0000 C   0  0  0  0  0  0  0  0  0  0  0  0
    5.2224    2.4911    0.0000 C   0  0  0  0  0  0  0  0  0  0  0  0
    3.0319   -2.9440    0.0000 C   0  0  0  0  0  0  0  0  0  0  0  0
    5.2224    3.3161    0.0000 C   0  0  0  0  0  0  0  0  0  0  0  0
    2.7770   -3.7286    0.0000 C   0  0  0  0  0  0  0  0  0  0  0  0
    1.9520   -3.7286    0.0000 C   0  0  0  0  0  0  0  0  0  0  0  0
  1 16  1  0  0  0  0
  1 25  1  0  0  0  0
  2 14  2  0  0  0  0
  3  8  1  0  0  0  0
  3  9  1  0  0  0  0
  3 11  1  0  0  0  0
  4  5  1  0  0  0  0
  4 13  1  0  0  0  0
  4 14  1  0  0  0  0
  5  6  1  0  0  0  0
  5  7  1  0  0  0  0
  6  8  1  0  0  0  0
  6 10  1  0  0  0  0
  7  9  1  0  0  0  0
 11 12  1  0  0  0  0
 12 16  1  0  0  0  0
 13 17  2  0  0  0  0
 13 18  1  0  0  0  0
 14 15  1  0  0  0  0
 15 19  1  0  0  0  0
 16 22  2  0  0  0  0
 17 20  1  0  0  0  0
 18 21  2  0  0  0  0
 20 23  2  0  0  0  0
 21 23  1  0  0  0  0
 22 24  1  0  0  0  0
 24 25  2  0  0  0  0
M  END
> <DATABASE_ID>
DB01439

> <DATABASE_NAME>
drugbank

> <SMILES>
CCC(=O)N(C1CCN(CCC2=CC=CS2)CC1C)C1=CC=CC=C1

> <INCHI_IDENTIFIER>
InChI=1S/C21H28N2OS/c1-3-21(24)23(18-8-5-4-6-9-18)20-12-14-22(16-17(20)2)13-11-19-10-7-15-25-19/h4-10,15,17,20H,3,11-14,16H2,1-2H3

> <INCHI_KEY>
SRARDYUHGVMEQI-UHFFFAOYSA-N

> <FORMULA>
C21H28N2OS

> <MOLECULAR_WEIGHT>
356.525

> <EXACT_MASS>
356.192234218

> <JCHEM_ACCEPTOR_COUNT>
2

> <JCHEM_AVERAGE_POLARIZABILITY>
39.967321026331874

> <JCHEM_BIOAVAILABILITY>
1

> <JCHEM_DONOR_COUNT>
0

> <JCHEM_FORMAL_CHARGE>
0

> <JCHEM_GHOSE_FILTER>
1

> <JCHEM_IUPAC>
N-{3-methyl-1-[2-(thiophen-2-yl)ethyl]piperidin-4-yl}-N-phenylpropanamide

> <ALOGPS_LOGP>
4.32

> <JCHEM_LOGP>
4.207703480666667

> <ALOGPS_LOGS>
-4.30

> <JCHEM_MDDR_LIKE_RULE>
1

> <JCHEM_NUMBER_OF_RINGS>
3

> <JCHEM_PHYSIOLOGICAL_CHARGE>
1

> <JCHEM_PKA_STRONGEST_BASIC>
9.070039089845496

> <JCHEM_POLAR_SURFACE_AREA>
23.550000000000004

> <JCHEM_REFRACTIVITY>
104.89920000000004

> <JCHEM_ROTATABLE_BOND_COUNT>
6

> <JCHEM_RULE_OF_FIVE>
1

> <ALOGPS_SOLUBILITY>
1.80e-02 g/l

> <JCHEM_TRADITIONAL_IUPAC>
3-methylthiofentanyl

> <JCHEM_VEBER_RULE>
1

> <DRUGBANK_ID>
DB01439

> <DRUG_GROUPS>
experimental; illicit

> <GENERIC_NAME>
3-Methylthiofentanyl

> <SYNONYMS>
3-Methyl-thiofentanyl

$$$$

  Mrv1718010011815042D          

  7  6  0  0  0  0            999 V2000
    1.0447    0.6679    0.0000 O   0  0  0  0  0  0  0  0  0  0  0  0
    1.7529   -0.6679    0.0000 O   0  0  0  0  0  0  0  0  0  0  0  0
   -1.7529   -0.2506    0.0000 O   0  0  0  0  0  0  0  0  0  0  0  0
    1.0447   -0.2506    0.0000 C   0  0  0  0  0  0  0  0  0  0  0  0
    0.3330   -0.6679    0.0000 C   0  0  0  0  0  0  0  0  0  0  0  0
   -0.3751   -0.2506    0.0000 C   0  0  0  0  0  0  0  0  0  0  0  0
   -1.0868   -0.6679    0.0000 C   0  0  0  0  0  0  0  0  0  0  0  0
  1  4  2  0  0  0  0
  2  4  1  0  0  0  0
  3  7  1  0  0  0  0
  4  5  1  0  0  0  0
  5  6  1  0  0  0  0
  6  7  1  0  0  0  0
M  END
> <DATABASE_ID>
DB01440

> <DATABASE_NAME>
drugbank

> <SMILES>
OCCCC(O)=O

> <INCHI_IDENTIFIER>
InChI=1S/C4H8O3/c5-3-1-2-4(6)7/h5H,1-3H2,(H,6,7)

> <INCHI_KEY>
SJZRECIVHVDYJC-UHFFFAOYSA-N

> <FORMULA>
C4H8O3

> <MOLECULAR_WEIGHT>
104.1045

> <EXACT_MASS>
104.047344122

> <JCHEM_ACCEPTOR_COUNT>
3

> <JCHEM_ATOM_COUNT>
15

> <JCHEM_AVERAGE_POLARIZABILITY>
10.166134903961725

> <JCHEM_BIOAVAILABILITY>
1

> <JCHEM_DONOR_COUNT>
2

> <JCHEM_FORMAL_CHARGE>
0

> <JCHEM_GHOSE_FILTER>
0

> <JCHEM_IUPAC>
4-hydroxybutanoic acid

> <ALOGPS_LOGP>
-0.63

> <JCHEM_LOGP>
-0.5149198190000002

> <ALOGPS_LOGS>
0.68

> <JCHEM_MDDR_LIKE_RULE>
0

> <JCHEM_NUMBER_OF_RINGS>
0

> <JCHEM_PHYSIOLOGICAL_CHARGE>
-1

> <JCHEM_PKA>
15.98255965448772

> <JCHEM_PKA_STRONGEST_ACIDIC>
4.440873954984472

> <JCHEM_PKA_STRONGEST_BASIC>
-2.3817124873466886

> <JCHEM_POLAR_SURFACE_AREA>
57.53

> <JCHEM_REFRACTIVITY>
23.800299999999996

> <JCHEM_ROTATABLE_BOND_COUNT>
3

> <JCHEM_RULE_OF_FIVE>
1

> <ALOGPS_SOLUBILITY>
4.94e+02 g/l

> <JCHEM_TRADITIONAL_IUPAC>
gamma hydroxybutyric acid

> <JCHEM_VEBER_RULE>
0

> <DRUGBANK_ID>
DB01440

> <DRUG_GROUPS>
approved; illicit; investigational

> <GENERIC_NAME>
gamma-Hydroxybutyric acid

> <SYNONYMS>
3-carboxypropoxy acid; 4-hydroxy-butyric acid; 4-hydroxybutanoate; 4-hydroxybutanoic acid; 4-Hydroxybutyric acid; gamma-Hydroxybutyrate; GHB; oxy-n-butyric acid; Oxybate; γ-Hydroxybutyric acid

> <PRODUCTS>
Xywav

> <SALTS>
Calcium oxybate; Magnesium oxybate; Potassium oxybate

$$$$
1441
  Mrv0541 02231215292D          

 20 21  0  0  0  0            999 V2000
    2.3645   -0.5003    0.0000 O   0  0  0  0  0  0  0  0  0  0  0  0
    6.6086    1.0771    0.0000 N   0  0  0  0  0  0  0  0  0  0  0  0
    5.2886   -1.9892    0.0000 N   0  0  0  0  0  0  0  0  0  0  0  0
    6.3522    0.2930    0.0000 C   0  0  0  0  0  0  0  0  0  0  0  0
    6.0575    1.6912    0.0000 C   0  0  0  0  0  0  0  0  0  0  0  0
    7.4158    1.2473    0.0000 C   0  0  0  0  0  0  0  0  0  0  0  0
    5.5449    0.1228    0.0000 C   0  0  0  0  0  0  0  0  0  0  0  0
    5.2886   -0.6613    0.0000 C   0  0  0  0  0  0  0  0  0  0  0  0
    5.2503    1.5211    0.0000 C   0  0  0  0  0  0  0  0  0  0  0  0
    6.3139    2.4754    0.0000 C   0  0  0  0  0  0  0  0  0  0  0  0
    7.9668    0.6332    0.0000 C   0  0  0  0  0  0  0  0  0  0  0  0
    7.6721    2.0315    0.0000 C   0  0  0  0  0  0  0  0  0  0  0  0
    4.5080   -0.9128    0.0000 C   0  0  0  0  0  0  0  0  0  0  0  0
    4.5080   -1.7378    0.0000 C   0  0  0  0  0  0  0  0  0  0  0  0
    5.7701   -1.3253    0.0000 C   0  0  0  0  0  0  0  0  0  0  0  0
    3.7935   -0.5003    0.0000 C   0  0  0  0  0  0  0  0  0  0  0  0
    3.7935   -2.1503    0.0000 C   0  0  0  0  0  0  0  0  0  0  0  0
    3.0791   -0.9128    0.0000 C   0  0  0  0  0  0  0  0  0  0  0  0
    3.0791   -1.7378    0.0000 C   0  0  0  0  0  0  0  0  0  0  0  0
    1.6500   -0.9128    0.0000 C   0  0  0  0  0  0  0  0  0  0  0  0
  1 18  1  0  0  0  0
  1 20  1  0  0  0  0
  2  4  1  0  0  0  0
  2  5  1  0  0  0  0
  2  6  1  0  0  0  0
  3 14  1  0  0  0  0
  3 15  1  0  0  0  0
  4  7  1  0  0  0  0
  5  9  1  0  0  0  0
  5 10  1  0  0  0  0
  6 11  1  0  0  0  0
  6 12  1  0  0  0  0
  7  8  1  0  0  0  0
  8 13  1  0  0  0  0
  8 15  2  0  0  0  0
 13 14  2  0  0  0  0
 13 16  1  0  0  0  0
 14 17  1  0  0  0  0
 16 18  2  0  0  0  0
 17 19  2  0  0  0  0
 18 19  1  0  0  0  0
M  END
> <DATABASE_ID>
DB01441

> <DATABASE_NAME>
drugbank

> <SMILES>
COC1=CC2=C(NC=C2CCN(C(C)C)C(C)C)C=C1

> <INCHI_IDENTIFIER>
InChI=1S/C17H26N2O/c1-12(2)19(13(3)4)9-8-14-11-18-17-7-6-15(20-5)10-16(14)17/h6-7,10-13,18H,8-9H2,1-5H3

> <INCHI_KEY>
DNBPMBJFRRVTSJ-UHFFFAOYSA-N

> <FORMULA>
C17H26N2O

> <MOLECULAR_WEIGHT>
274.4011

> <EXACT_MASS>
274.204513464

> <JCHEM_ACCEPTOR_COUNT>
2

> <JCHEM_AVERAGE_POLARIZABILITY>
33.05592036857571

> <JCHEM_BIOAVAILABILITY>
1

> <JCHEM_DONOR_COUNT>
1

> <JCHEM_FORMAL_CHARGE>
0

> <JCHEM_GHOSE_FILTER>
1

> <JCHEM_IUPAC>
[2-(5-methoxy-1H-indol-3-yl)ethyl]bis(propan-2-yl)amine

> <ALOGPS_LOGP>
4.35

> <JCHEM_LOGP>
3.691160474

> <ALOGPS_LOGS>
-3.61

> <JCHEM_MDDR_LIKE_RULE>
0

> <JCHEM_NUMBER_OF_RINGS>
2

> <JCHEM_PHYSIOLOGICAL_CHARGE>
1

> <JCHEM_PKA_STRONGEST_ACIDIC>
17.440751467922038

> <JCHEM_PKA_STRONGEST_BASIC>
10.681735769785906

> <JCHEM_POLAR_SURFACE_AREA>
28.259999999999998

> <JCHEM_REFRACTIVITY>
85.24020000000002

> <JCHEM_ROTATABLE_BOND_COUNT>
6

> <JCHEM_RULE_OF_FIVE>
1

> <ALOGPS_SOLUBILITY>
6.73e-02 g/l

> <JCHEM_TRADITIONAL_IUPAC>
5-MeO-DIPT

> <JCHEM_VEBER_RULE>
1

> <DRUGBANK_ID>
DB01441

> <DRUG_GROUPS>
experimental; illicit

> <GENERIC_NAME>
5-Methoxy-N,N-diisopropyltryptamine

> <SYNONYMS>
5-MeO-DIPT; 5-methoxy-N,N-bis(1-methylethyl)-1H-indole-3-ethanamine; Foxy; Foxy methoxy; N-(1-methylethyl)-N-{2-[5-(methyloxy)-1H-indol-3-yl]ethyl}propan-2-amine

$$$$
1442
  Mrv0541 02231215292D          

 15 16  0  0  1  0            999 V2000
    6.4461   -1.0269    0.0000 O   0  0  0  0  0  0  0  0  0  0  0  0
    6.4461    0.3009    0.0000 O   0  0  0  0  0  0  0  0  0  0  0  0
    4.9509    1.2870    0.0000 O   0  0  0  0  0  0  0  0  0  0  0  0
    2.0930   -1.1880    0.0000 N   0  0  0  0  0  0  0  0  0  0  0  0
    3.5220   -1.1880    0.0000 C   0  0  0  0  0  0  0  0  0  0  0  0
    2.8075   -0.7755    0.0000 C   0  0  0  0  0  0  0  0  0  0  0  0
    4.2365   -0.7755    0.0000 C   0  0  0  0  0  0  0  0  0  0  0  0
    4.9509   -1.1880    0.0000 C   0  0  0  0  0  0  0  0  0  0  0  0
    5.6655   -0.7755    0.0000 C   0  0  0  0  0  0  0  0  0  0  0  0
    4.2365    0.0495    0.0000 C   0  0  0  0  0  0  0  0  0  0  0  0
    5.6655    0.0495    0.0000 C   0  0  0  0  0  0  0  0  0  0  0  0
    4.9509    0.4620    0.0000 C   0  0  0  0  0  0  0  0  0  0  0  0
    2.8075    0.0495    0.0000 C   0  0  0  0  0  0  0  0  0  0  0  0
    6.9276   -0.3630    0.0000 C   0  0  0  0  0  0  0  0  0  0  0  0
    4.2365    1.6995    0.0000 C   0  0  0  0  0  0  0  0  0  0  0  0
  1  9  1  0  0  0  0
  1 14  1  0  0  0  0
  2 11  1  0  0  0  0
  2 14  1  0  0  0  0
  3 12  1  0  0  0  0
  3 15  1  0  0  0  0
  4  6  1  0  0  0  0
  5  6  1  0  0  0  0
  5  7  1  0  0  0  0
  6 13  1  0  0  0  0
  7  8  2  0  0  0  0
  7 10  1  0  0  0  0
  8  9  1  0  0  0  0
  9 11  2  0  0  0  0
 10 12  2  0  0  0  0
 11 12  1  0  0  0  0
M  END
> <DATABASE_ID>
DB01442

> <DATABASE_NAME>
drugbank

> <SMILES>
COC1=CC(CC(C)N)=CC2=C1OCO2

> <INCHI_IDENTIFIER>
InChI=1S/C11H15NO3/c1-7(12)3-8-4-9(13-2)11-10(5-8)14-6-15-11/h4-5,7H,3,6,12H2,1-2H3

> <INCHI_KEY>
YQYUWUKDEVZFDB-UHFFFAOYSA-N

> <FORMULA>
C11H15NO3

> <MOLECULAR_WEIGHT>
209.2417

> <EXACT_MASS>
209.105193351

> <JCHEM_ACCEPTOR_COUNT>
4

> <JCHEM_AVERAGE_POLARIZABILITY>
22.382674520735193

> <JCHEM_BIOAVAILABILITY>
1

> <JCHEM_DONOR_COUNT>
1

> <JCHEM_FORMAL_CHARGE>
0

> <JCHEM_GHOSE_FILTER>
1

> <JCHEM_IUPAC>
1-(7-methoxy-2H-1,3-benzodioxol-5-yl)propan-2-amine

> <ALOGPS_LOGP>
1.07

> <JCHEM_LOGP>
1.2698126836666663

> <ALOGPS_LOGS>
-1.89

> <JCHEM_MDDR_LIKE_RULE>
0

> <JCHEM_NUMBER_OF_RINGS>
2

> <JCHEM_PHYSIOLOGICAL_CHARGE>
1

> <JCHEM_PKA_STRONGEST_BASIC>
9.989800197717996

> <JCHEM_POLAR_SURFACE_AREA>
53.71

> <JCHEM_REFRACTIVITY>
55.935300000000005

> <JCHEM_ROTATABLE_BOND_COUNT>
3

> <JCHEM_RULE_OF_FIVE>
1

> <ALOGPS_SOLUBILITY>
2.71e+00 g/l

> <JCHEM_TRADITIONAL_IUPAC>
MMDA

> <JCHEM_VEBER_RULE>
0

> <DRUGBANK_ID>
DB01442

> <DRUG_GROUPS>
experimental; illicit

> <GENERIC_NAME>
MMDA

> <SYNONYMS>
(+-)-MMDA; 3-Methoxy-4,5-methylenedioxyphenylisopropylamine; 3-Methoxy-alpha-methyl-4,5-methylenedioxyphenethylamine; 3-methoxy-methylenedioxyamphetamine; 5-Methoxy-3,4-methylenedioxyamphetamine

$$$$

  Mrv1902 01251923412D          

 24 27  0  0  0  0            999 V2000
    2.0641    1.3465    0.0000 C   0  0  0  0  0  0  0  0  0  0  0  0
    2.0641    0.5230    0.0000 C   0  0  0  0  0  0  0  0  0  0  0  0
    1.3520    0.1113    0.0000 C   0  0  0  0  0  0  0  0  0  0  0  0
    0.6342    0.5230    0.0000 C   0  0  1  0  0  0  0  0  0  0  0  0
    0.6342   -0.3059    0.0000 H   0  0  0  0  0  0  0  0  0  0  0  0
    1.3520    1.7582    0.0000 C   0  0  0  0  0  0  0  0  0  0  0  0
    0.6342    1.3465    0.0000 C   0  0  0  0  0  0  0  0  0  0  0  0
   -0.0779    1.7582    0.0000 C   0  0  0  0  0  0  0  0  0  0  0  0
   -0.7956    1.3465    0.0000 C   0  0  0  0  0  0  0  0  0  0  0  0
   -0.7956    0.5230    0.0000 C   0  0  1  0  0  0  0  0  0  0  0  0
   -1.5079    0.1113    0.0000 C   0  0  2  0  0  0  0  0  0  0  0  0
   -2.2979    0.3616    0.0000 C   0  0  0  0  0  0  0  0  0  0  0  0
   -2.7820   -0.3059    0.0000 C   0  0  0  0  0  0  0  0  0  0  0  0
   -2.2979   -0.9736    0.0000 C   0  0  0  0  0  0  0  0  0  0  0  0
   -1.5079   -0.7177    0.0000 C   0  0  2  0  0  0  0  0  0  0  0  0
   -1.6580   -1.5300    0.0000 C   0  0  0  0  0  0  0  0  0  0  0  0
   -0.7956   -1.1294    0.0000 C   0  0  0  0  0  0  0  0  0  0  0  0
   -0.0779   -0.7177    0.0000 C   0  0  0  0  0  0  0  0  0  0  0  0
   -0.0779    0.1113    0.0000 C   0  0  2  0  0  0  0  0  0  0  0  0
    1.3520   -0.7177    0.0000 H   0  0  0  0  0  0  0  0  0  0  0  0
   -2.5538   -1.7582    0.0000 O   0  0  0  0  0  0  0  0  0  0  0  0
   -1.6580    0.9236    0.0000 H   0  0  0  0  0  0  0  0  0  0  0  0
   -1.5079    0.9348    0.0000 H   0  0  0  0  0  0  0  0  0  0  0  0
    2.7820    1.7582    0.0000 O   0  0  0  0  0  0  0  0  0  0  0  0
  1  2  1  0  0  0  0
  1  6  1  0  0  0  0
  1 24  2  0  0  0  0
  2  3  1  0  0  0  0
  3  4  1  0  0  0  0
  4  5  1  1  0  0  0
  4  7  1  0  0  0  0
  4 19  1  0  0  0  0
  6  7  1  0  0  0  0
  7  8  2  0  0  0  0
  8  9  1  0  0  0  0
  9 10  1  0  0  0  0
 10 11  1  0  0  0  0
 10 19  1  0  0  0  0
 10 23  1  1  0  0  0
 11 12  1  0  0  0  0
 11 15  1  0  0  0  0
 11 22  1  6  0  0  0
 12 13  1  0  0  0  0
 13 14  1  0  0  0  0
 14 15  1  0  0  0  0
 14 21  2  0  0  0  0
 15 16  1  1  0  0  0
 15 17  1  0  0  0  0
 17 18  1  0  0  0  0
 18 19  1  0  0  0  0
 19 20  1  6  0  0  0
M  END
> <DATABASE_ID>
DB01443

> <DATABASE_NAME>
drugbank

> <SMILES>
[H][C@@]12CCC(=O)[C@@]1(C)CC[C@]1([H])[C@@]3([H])CCC(=O)CC3=CC[C@@]21[H]

> <INCHI_IDENTIFIER>
InChI=1S/C18H24O2/c1-18-9-8-14-13-5-3-12(19)10-11(13)2-4-15(14)16(18)6-7-17(18)20/h2,13-16H,3-10H2,1H3/t13-,14+,15+,16-,18-/m0/s1

> <INCHI_KEY>
WELNRNVZXWUOGT-QXUSFIETSA-N

> <FORMULA>
C18H24O2

> <MOLECULAR_WEIGHT>
272.388

> <EXACT_MASS>
272.177630013

> <JCHEM_ACCEPTOR_COUNT>
2

> <JCHEM_ATOM_COUNT>
44

> <JCHEM_AVERAGE_POLARIZABILITY>
31.584668457321484

> <JCHEM_BIOAVAILABILITY>
1

> <JCHEM_DONOR_COUNT>
0

> <JCHEM_FORMAL_CHARGE>
0

> <JCHEM_GHOSE_FILTER>
1

> <JCHEM_IUPAC>
(3aS,3bR,9aR,9bS,11aS)-11a-methyl-1H,2H,3H,3aH,3bH,4H,6H,7H,8H,9H,9aH,9bH,10H,11H,11aH-cyclopenta[a]phenanthrene-1,7-dione

> <ALOGPS_LOGP>
3.09

> <JCHEM_LOGP>
3.269158737

> <ALOGPS_LOGS>
-3.64

> <JCHEM_MDDR_LIKE_RULE>
0

> <JCHEM_NUMBER_OF_RINGS>
4

> <JCHEM_PHYSIOLOGICAL_CHARGE>
0

> <JCHEM_PKA_STRONGEST_ACIDIC>
16.247034999604107

> <JCHEM_PKA_STRONGEST_BASIC>
-7.150987353065228

> <JCHEM_POLAR_SURFACE_AREA>
34.14

> <JCHEM_REFRACTIVITY>
79.15569999999998

> <JCHEM_ROTATABLE_BOND_COUNT>
0

> <JCHEM_RULE_OF_FIVE>
1

> <ALOGPS_SOLUBILITY>
6.21e-02 g/l

> <JCHEM_TRADITIONAL_IUPAC>
antipyrine

> <JCHEM_VEBER_RULE>
1

> <DRUGBANK_ID>
DB01443

> <DRUG_GROUPS>
experimental; illicit

> <GENERIC_NAME>
19-Nor-5-androstenedione

> <SYNONYMS>
estr-5-ene-3,17-dione

$$$$
1444
  Mrv0541 02231215292D          

 17 18  0  0  1  0            999 V2000
    5.2616   -0.1133    0.0000 S   0  0  0  0  0  0  0  0  0  0  0  0
    3.1261   -1.5002    0.0000 S   0  0  0  0  0  0  0  0  0  0  0  0
    2.3645    1.4598    0.0000 N   0  0  0  0  0  0  0  0  0  0  0  0
    3.0791    1.0473    0.0000 C   0  0  0  0  0  0  0  0  0  0  0  0
    3.0791    0.2223    0.0000 C   0  0  0  0  0  0  0  0  0  0  0  0
    3.7935   -0.1902    0.0000 C   0  0  0  0  0  0  0  0  0  0  0  0
    3.7935    1.4598    0.0000 C   0  0  0  0  0  0  0  0  0  0  0  0
    2.3645    2.2848    0.0000 C   0  0  0  0  0  0  0  0  0  0  0  0
    1.6500    1.0473    0.0000 C   0  0  0  0  0  0  0  0  0  0  0  0
    4.5080    0.2223    0.0000 C   0  0  0  0  0  0  0  0  0  0  0  0
    3.7935   -1.0153    0.0000 C   0  0  0  0  0  0  0  0  0  0  0  0
    4.5942    1.0427    0.0000 C   0  0  0  0  0  0  0  0  0  0  0  0
    4.4610   -1.5002    0.0000 C   0  0  0  0  0  0  0  0  0  0  0  0
    5.4012    1.2143    0.0000 C   0  0  0  0  0  0  0  0  0  0  0  0
    4.2060   -2.2848    0.0000 C   0  0  0  0  0  0  0  0  0  0  0  0
    5.8137    0.4998    0.0000 C   0  0  0  0  0  0  0  0  0  0  0  0
    3.3810   -2.2848    0.0000 C   0  0  0  0  0  0  0  0  0  0  0  0
  1 10  1  0  0  0  0
  1 16  1  0  0  0  0
  2 11  1  0  0  0  0
  2 17  1  0  0  0  0
  3  4  1  0  0  0  0
  3  8  1  0  0  0  0
  3  9  1  0  0  0  0
  4  5  1  0  0  0  0
  4  7  1  0  0  0  0
  5  6  2  0  0  0  0
  6 10  1  0  0  0  0
  6 11  1  0  0  0  0
 10 12  2  0  0  0  0
 11 13  2  0  0  0  0
 12 14  1  0  0  0  0
 13 15  1  0  0  0  0
 14 16  2  0  0  0  0
 15 17  2  0  0  0  0
M  END
> <DATABASE_ID>
DB01444

> <DATABASE_NAME>
drugbank

> <SMILES>
CC(C=C(C1=CC=CS1)C1=CC=CS1)N(C)C

> <INCHI_IDENTIFIER>
InChI=1S/C14H17NS2/c1-11(15(2)3)10-12(13-6-4-8-16-13)14-7-5-9-17-14/h4-11H,1-3H3

> <INCHI_KEY>
CANBGVXYBPOLRR-UHFFFAOYSA-N

> <FORMULA>
C14H17NS2

> <MOLECULAR_WEIGHT>
263.421

> <EXACT_MASS>
263.080240929

> <JCHEM_ACCEPTOR_COUNT>
1

> <JCHEM_AVERAGE_POLARIZABILITY>
29.455677096016956

> <JCHEM_BIOAVAILABILITY>
1

> <JCHEM_DONOR_COUNT>
0

> <JCHEM_FORMAL_CHARGE>
0

> <JCHEM_GHOSE_FILTER>
1

> <JCHEM_IUPAC>
[4,4-bis(thiophen-2-yl)but-3-en-2-yl]dimethylamine

> <ALOGPS_LOGP>
4.06

> <JCHEM_LOGP>
4.200094604666667

> <ALOGPS_LOGS>
-3.50

> <JCHEM_MDDR_LIKE_RULE>
0

> <JCHEM_NUMBER_OF_RINGS>
2

> <JCHEM_PHYSIOLOGICAL_CHARGE>
1

> <JCHEM_PKA_STRONGEST_BASIC>
8.66693976131667

> <JCHEM_POLAR_SURFACE_AREA>
3.24

> <JCHEM_REFRACTIVITY>
86.67060000000001

> <JCHEM_ROTATABLE_BOND_COUNT>
4

> <JCHEM_RULE_OF_FIVE>
1

> <ALOGPS_SOLUBILITY>
8.39e-02 g/l

> <JCHEM_TRADITIONAL_IUPAC>
dimethylthiambutene

> <JCHEM_VEBER_RULE>
1

> <DRUGBANK_ID>
DB01444

> <DRUG_GROUPS>
experimental; illicit

> <GENERIC_NAME>
Dimethylthiambutene

> <SYNONYMS>
3-dimethylamino-1,1-bis(2-thienyl)-1-butene; 3-dimethylamino-1,1-di-(2'-thienyl)-1-butene; Dimethibutin; Dimethylthiambutene; Dimethylthiambutenum; Dimetiltiambutene; Dimetiltiambuteno; N,N-dimethyl-4,4-di(2-thienyl)-3-buten-2-amine; N,N,1-trimethyl-3,3-di-2-thienylallylamine; N,N,1-trimethyl-3,3-di(2-thienyl)-2-propenylamine; Ohton

$$$$
1445
  Mrv0541 02231215302D          

 15 16  0  0  0  0            999 V2000
    2.0930   -0.1082    0.0000 O   0  0  0  0  0  0  0  0  0  0  0  0
    6.3370    1.4693    0.0000 N   0  0  0  0  0  0  0  0  0  0  0  0
    5.0171   -1.5972    0.0000 N   0  0  0  0  0  0  0  0  0  0  0  0
    5.2734    0.5149    0.0000 C   0  0  0  0  0  0  0  0  0  0  0  0
    5.0171   -0.2693    0.0000 C   0  0  0  0  0  0  0  0  0  0  0  0
    4.2365   -0.5207    0.0000 C   0  0  0  0  0  0  0  0  0  0  0  0
    6.0807    0.6851    0.0000 C   0  0  0  0  0  0  0  0  0  0  0  0
    4.2365   -1.3457    0.0000 C   0  0  0  0  0  0  0  0  0  0  0  0
    5.4986   -0.9332    0.0000 C   0  0  0  0  0  0  0  0  0  0  0  0
    3.5220   -0.1082    0.0000 C   0  0  0  0  0  0  0  0  0  0  0  0
    3.5220   -1.7582    0.0000 C   0  0  0  0  0  0  0  0  0  0  0  0
    2.8075   -0.5207    0.0000 C   0  0  0  0  0  0  0  0  0  0  0  0
    7.1443    1.6394    0.0000 C   0  0  0  0  0  0  0  0  0  0  0  0
    5.7860    2.0833    0.0000 C   0  0  0  0  0  0  0  0  0  0  0  0
    2.8075   -1.3457    0.0000 C   0  0  0  0  0  0  0  0  0  0  0  0
  1 12  1  0  0  0  0
  2  7  1  0  0  0  0
  2 13  1  0  0  0  0
  2 14  1  0  0  0  0
  3  8  1  0  0  0  0
  3  9  1  0  0  0  0
  4  5  1  0  0  0  0
  4  7  1  0  0  0  0
  5  6  1  0  0  0  0
  5  9  2  0  0  0  0
  6  8  2  0  0  0  0
  6 10  1  0  0  0  0
  8 11  1  0  0  0  0
 10 12  2  0  0  0  0
 11 15  2  0  0  0  0
 12 15  1  0  0  0  0
M  END
> <DATABASE_ID>
DB01445

> <DATABASE_NAME>
drugbank

> <SMILES>
CN(C)CCC1=CNC2=C1C=C(O)C=C2

> <INCHI_IDENTIFIER>
InChI=1S/C12H16N2O/c1-14(2)6-5-9-8-13-12-4-3-10(15)7-11(9)12/h3-4,7-8,13,15H,5-6H2,1-2H3

> <INCHI_KEY>
VTTONGPRPXSUTJ-UHFFFAOYSA-N

> <FORMULA>
C12H16N2O

> <MOLECULAR_WEIGHT>
204.2682

> <EXACT_MASS>
204.126263144

> <JCHEM_ACCEPTOR_COUNT>
2

> <JCHEM_AVERAGE_POLARIZABILITY>
23.290220670309544

> <JCHEM_BIOAVAILABILITY>
1

> <JCHEM_DONOR_COUNT>
2

> <JCHEM_FORMAL_CHARGE>
0

> <JCHEM_GHOSE_FILTER>
1

> <JCHEM_IUPAC>
3-[2-(dimethylamino)ethyl]-1H-indol-5-ol

> <ALOGPS_LOGP>
2.04

> <JCHEM_LOGP>
1.2922694904624674

> <ALOGPS_LOGS>
-1.81

> <JCHEM_MDDR_LIKE_RULE>
0

> <JCHEM_NUMBER_OF_RINGS>
2

> <JCHEM_PHYSIOLOGICAL_CHARGE>
1

> <JCHEM_PKA>
18.218197203699578

> <JCHEM_PKA_STRONGEST_ACIDIC>
9.232412171709068

> <JCHEM_PKA_STRONGEST_BASIC>
9.910793391467232

> <JCHEM_POLAR_SURFACE_AREA>
39.26

> <JCHEM_REFRACTIVITY>
62.423100000000005

> <JCHEM_ROTATABLE_BOND_COUNT>
3

> <JCHEM_RULE_OF_FIVE>
1

> <ALOGPS_SOLUBILITY>
3.20e+00 g/l

> <JCHEM_TRADITIONAL_IUPAC>
bufotenine

> <JCHEM_VEBER_RULE>
1

> <DRUGBANK_ID>
DB01445

> <DRUG_GROUPS>
experimental; illicit

> <GENERIC_NAME>
Bufotenine

> <SYNONYMS>
3-[2-(dimethylamino)ethyl]-5-indolol; 3-[2-(dimethylamino)ethyl]indol-5-ol; 3-[β-(dimethylamino)ethyl]-5-hydroxyindole; 5-hydroxy-N,N-dimethyltryptamine; Bufotenin; DM5-HT; N,N-dimethylserotonin

$$$$
1446
  Mrv0541 02231215302D          

 13 14  0  0  1  0            999 V2000
    3.8597   -1.4804    0.0000 N   0  0  0  0  0  0  0  0  0  0  0  0
    5.1795    1.5859    0.0000 N   0  0  0  0  0  0  0  0  0  0  0  0
    4.1159    0.6316    0.0000 C   0  0  0  0  0  0  0  0  0  0  0  0
    3.8597   -0.1526    0.0000 C   0  0  0  0  0  0  0  0  0  0  0  0
    4.9232    0.8018    0.0000 C   0  0  0  0  0  0  0  0  0  0  0  0
    3.0791   -0.4040    0.0000 C   0  0  0  0  0  0  0  0  0  0  0  0
    3.0791   -1.2290    0.0000 C   0  0  0  0  0  0  0  0  0  0  0  0
    4.3412   -0.8165    0.0000 C   0  0  0  0  0  0  0  0  0  0  0  0
    5.4742    0.1877    0.0000 C   0  0  0  0  0  0  0  0  0  0  0  0
    2.3645    0.0085    0.0000 C   0  0  0  0  0  0  0  0  0  0  0  0
    2.3645   -1.6415    0.0000 C   0  0  0  0  0  0  0  0  0  0  0  0
    1.6500   -0.4040    0.0000 C   0  0  0  0  0  0  0  0  0  0  0  0
    1.6500   -1.2290    0.0000 C   0  0  0  0  0  0  0  0  0  0  0  0
  1  7  1  0  0  0  0
  1  8  1  0  0  0  0
  2  5  1  0  0  0  0
  3  4  1  0  0  0  0
  3  5  1  0  0  0  0
  4  6  1  0  0  0  0
  4  8  2  0  0  0  0
  5  9  1  0  0  0  0
  6  7  1  0  0  0  0
  6 10  2  0  0  0  0
  7 11  2  0  0  0  0
 10 12  1  0  0  0  0
 11 13  1  0  0  0  0
 12 13  2  0  0  0  0
M  END
> <DATABASE_ID>
DB01446

> <DATABASE_NAME>
drugbank

> <SMILES>
CC(N)CC1=CNC2=CC=CC=C12

> <INCHI_IDENTIFIER>
InChI=1S/C11H14N2/c1-8(12)6-9-7-13-11-5-3-2-4-10(9)11/h2-5,7-8,13H,6,12H2,1H3

> <INCHI_KEY>
QSQQQURBVYWZKJ-UHFFFAOYSA-N

> <FORMULA>
C11H14N2

> <MOLECULAR_WEIGHT>
174.2423

> <EXACT_MASS>
174.115698458

> <JCHEM_ACCEPTOR_COUNT>
1

> <JCHEM_AVERAGE_POLARIZABILITY>
20.189095967636252

> <JCHEM_BIOAVAILABILITY>
1

> <JCHEM_DONOR_COUNT>
2

> <JCHEM_FORMAL_CHARGE>
0

> <JCHEM_GHOSE_FILTER>
1

> <JCHEM_IUPAC>
1-(1H-indol-3-yl)propan-2-amine

> <ALOGPS_LOGP>
2.00

> <JCHEM_LOGP>
1.9030124746666663

> <ALOGPS_LOGS>
-2.18

> <JCHEM_MDDR_LIKE_RULE>
0

> <JCHEM_NUMBER_OF_RINGS>
2

> <JCHEM_PHYSIOLOGICAL_CHARGE>
1

> <JCHEM_PKA_STRONGEST_ACIDIC>
17.13788304467716

> <JCHEM_PKA_STRONGEST_BASIC>
9.958785741724336

> <JCHEM_POLAR_SURFACE_AREA>
41.81

> <JCHEM_REFRACTIVITY>
54.79170000000002

> <JCHEM_ROTATABLE_BOND_COUNT>
2

> <JCHEM_RULE_OF_FIVE>
1

> <ALOGPS_SOLUBILITY>
1.15e+00 g/l

> <JCHEM_TRADITIONAL_IUPAC>
α-methyltryptamine

> <JCHEM_VEBER_RULE>
0

> <DRUGBANK_ID>
DB01446

> <DRUG_GROUPS>
experimental; illicit

> <GENERIC_NAME>
Indopan

> <SYNONYMS>
1-(1H-Indol-3-yl)-2-propanamine; 3-(2-Aminopropyl)indole; alpha-Methyl-1H-indole-3-ethanamine; alpha-Methyl-beta-indoleethylamine; alpha-methyltryptamine; AMT; DL-3-(2-Aminopropyl)indole; Indopan; α-Methyl-3-indoleethanamine; α-methyltryptamine; αMT

$$$$
1447
  Mrv0541 02231215302D          

 13 14  0  0  1  0            999 V2000
    2.3888    0.5203    0.0000 O   0  0  0  0  0  0  0  0  0  0  0  0
    3.4687    1.3049    0.0000 N   0  0  0  0  0  0  0  0  0  0  0  0
    2.1587    1.9724    0.0000 N   0  0  0  0  0  0  0  0  0  0  0  0
    3.0562    0.0354    0.0000 C   0  0  0  0  0  0  0  0  0  0  0  0
    3.7236    0.5203    0.0000 C   0  0  0  0  0  0  0  0  0  0  0  0
    3.0562   -0.7896    0.0000 C   0  0  0  0  0  0  0  0  0  0  0  0
    4.5083    0.2653    0.0000 C   0  0  0  0  0  0  0  0  0  0  0  0
    2.6437    1.3049    0.0000 C   0  0  0  0  0  0  0  0  0  0  0  0
    3.7707   -1.2021    0.0000 C   0  0  0  0  0  0  0  0  0  0  0  0
    2.3417   -1.2021    0.0000 C   0  0  0  0  0  0  0  0  0  0  0  0
    3.7707   -2.0272    0.0000 C   0  0  0  0  0  0  0  0  0  0  0  0
    2.3417   -2.0272    0.0000 C   0  0  0  0  0  0  0  0  0  0  0  0
    3.0562   -2.4397    0.0000 C   0  0  0  0  0  0  0  0  0  0  0  0
  1  4  1  0  0  0  0
  1  8  1  0  0  0  0
  2  5  1  0  0  0  0
  2  8  2  0  0  0  0
  3  8  1  0  0  0  0
  4  5  1  0  0  0  0
  4  6  1  0  0  0  0
  5  7  1  0  0  0  0
  6  9  2  0  0  0  0
  6 10  1  0  0  0  0
  9 11  1  0  0  0  0
 10 12  2  0  0  0  0
 11 13  2  0  0  0  0
 12 13  1  0  0  0  0
M  END
> <DATABASE_ID>
DB01447

> <DATABASE_NAME>
drugbank

> <SMILES>
CC1N=C(N)OC1C1=CC=CC=C1

> <INCHI_IDENTIFIER>
InChI=1S/C10H12N2O/c1-7-9(13-10(11)12-7)8-5-3-2-4-6-8/h2-7,9H,1H3,(H2,11,12)

> <INCHI_KEY>
LJQBMYDFWFGESC-UHFFFAOYSA-N

> <FORMULA>
C10H12N2O

> <MOLECULAR_WEIGHT>
176.2151

> <EXACT_MASS>
176.094963016

> <JCHEM_ACCEPTOR_COUNT>
3

> <JCHEM_AVERAGE_POLARIZABILITY>
18.916204545588208

> <JCHEM_BIOAVAILABILITY>
1

> <JCHEM_DONOR_COUNT>
1

> <JCHEM_FORMAL_CHARGE>
0

> <JCHEM_GHOSE_FILTER>
1

> <JCHEM_IUPAC>
4-methyl-5-phenyl-4,5-dihydro-1,3-oxazol-2-amine

> <ALOGPS_LOGP>
1.47

> <JCHEM_LOGP>
1.8787306556666665

> <ALOGPS_LOGS>
-2.58

> <JCHEM_MDDR_LIKE_RULE>
0

> <JCHEM_NUMBER_OF_RINGS>
2

> <JCHEM_PHYSIOLOGICAL_CHARGE>
1

> <JCHEM_PKA_STRONGEST_BASIC>
7.241014633931162

> <JCHEM_POLAR_SURFACE_AREA>
47.61

> <JCHEM_REFRACTIVITY>
50.16690000000001

> <JCHEM_ROTATABLE_BOND_COUNT>
1

> <JCHEM_RULE_OF_FIVE>
1

> <ALOGPS_SOLUBILITY>
4.68e-01 g/l

> <JCHEM_TRADITIONAL_IUPAC>
4-methylaminorex

> <JCHEM_VEBER_RULE>
0

> <DRUGBANK_ID>
DB01447

> <DRUG_GROUPS>
experimental; illicit

> <GENERIC_NAME>
4-Methylaminorex

$$$$
1450
  Mrv0541 02231215302D          

 33 38  0  0  1  0            999 V2000
    4.3079   -1.4379    0.0000 O   0  0  0  0  0  0  0  0  0  0  0  0
    6.3946   -1.6094    0.0000 O   0  0  0  0  0  0  0  0  0  0  0  0
    7.2345    0.7003    0.0000 O   0  0  0  0  0  0  0  0  0  0  0  0
    2.2397   -1.6093    0.0000 O   0  0  0  0  0  0  0  0  0  0  0  0
    5.1422    1.9889    0.0000 N   0  0  0  0  0  0  0  0  0  0  0  0
    5.1422    0.5599    0.0000 C   0  0  2  0  0  0  0  0  0  0  0  0
    4.7296   -0.1546    0.0000 C   0  0  1  0  0  0  0  0  0  0  0  0
    5.9672   -0.8690    0.0000 C   0  0  1  0  0  0  0  0  0  0  0  0
    5.1422   -0.8690    0.0000 C   0  0  2  0  0  0  0  0  0  0  0  0
    5.9672    0.5599    0.0000 C   0  0  0  0  0  0  0  0  0  0  0  0
    6.3797   -0.1546    0.0000 C   0  0  2  0  0  0  0  0  0  0  0  0
    4.7296    1.2745    0.0000 C   0  0  1  0  0  0  0  0  0  0  0  0
    5.7380    0.1755    0.0000 C   0  0  0  0  0  0  0  0  0  0  0  0
    5.4263   -0.4479    0.0000 C   0  0  0  0  0  0  0  0  0  0  0  0
    4.3172    0.5599    0.0000 C   0  0  0  0  0  0  0  0  0  0  0  0
    3.9046   -0.1546    0.0000 C   0  0  0  0  0  0  0  0  0  0  0  0
    3.9046    1.2745    0.0000 C   0  0  0  0  0  0  0  0  0  0  0  0
    7.2345   -0.1546    0.0000 C   0  0  1  0  0  0  0  0  0  0  0  0
    4.3079    2.1372    0.0000 C   0  0  0  0  0  0  0  0  0  0  0  0
    3.4921    0.5599    0.0000 C   0  0  0  0  0  0  0  0  0  0  0  0
    3.4921   -0.8690    0.0000 C   0  0  0  0  0  0  0  0  0  0  0  0
    8.0894   -0.1546    0.0000 C   0  0  0  0  0  0  0  0  0  0  0  0
    5.9172    2.3497    0.0000 C   0  0  0  0  0  0  0  0  0  0  0  0
    7.2345   -1.0094    0.0000 C   0  0  0  0  0  0  0  0  0  0  0  0
    2.6671    0.5599    0.0000 C   0  0  0  0  0  0  0  0  0  0  0  0
    2.6671   -0.8690    0.0000 C   0  0  0  0  0  0  0  0  0  0  0  0
    5.9672   -2.3497    0.0000 C   0  0  0  0  0  0  0  0  0  0  0  0
    2.2545   -0.1546    0.0000 C   0  0  0  0  0  0  0  0  0  0  0  0
    8.5168    0.5857    0.0000 C   0  0  0  0  0  0  0  0  0  0  0  0
    9.3716    0.5857    0.0000 C   0  0  0  0  0  0  0  0  0  0  0  0
    5.3437   -1.5225    0.0000 H   0  0  0  0  0  0  0  0  0  0  0  0
    6.7216    0.4377    0.0000 H   0  0  0  0  0  0  0  0  0  0  0  0
    5.3702    1.0349    0.0000 H   0  0  0  0  0  0  0  0  0  0  0  0
  1  9  1  0  0  0  0
  1 21  1  0  0  0  0
  8  2  1  6  0  0  0
  2 27  1  0  0  0  0
 18  3  1  1  0  0  0
  4 26  1  0  0  0  0
  5 12  1  0  0  0  0
  5 19  1  0  0  0  0
  5 23  1  0  0  0  0
  6  7  1  0  0  0  0
  6 10  1  0  0  0  0
  6 12  1  0  0  0  0
  6 13  1  6  0  0  0
  7  9  1  0  0  0  0
  7 15  1  1  0  0  0
  7 16  1  0  0  0  0
  8  9  1  0  0  0  0
  8 11  1  0  0  0  0
  8 14  1  0  0  0  0
  9 31  1  1  0  0  0
 10 11  1  0  0  0  0
 11 18  1  0  0  0  0
 11 32  1  1  0  0  0
 12 17  1  0  0  0  0
 12 33  1  6  0  0  0
 13 14  1  0  0  0  0
 15 19  1  0  0  0  0
 16 20  2  0  0  0  0
 16 21  1  0  0  0  0
 17 20  1  0  0  0  0
 18 22  1  0  0  0  0
 18 24  1  0  0  0  0
 20 25  1  0  0  0  0
 21 26  2  0  0  0  0
 22 29  1  0  0  0  0
 25 28  2  0  0  0  0
 26 28  1  0  0  0  0
 29 30  1  0  0  0  0
M  END
> <DATABASE_ID>
DB01450

> <DATABASE_NAME>
drugbank

> <SMILES>
[H][C@@]12OC3=C(O)C=CC4=C3[C@@]11CCN(C)[C@]([H])(C4)[C@]11CC[C@@]2(OC)[C@]([H])(C1)[C@](C)(O)CCC

> <INCHI_IDENTIFIER>
InChI=1S/C25H35NO4/c1-5-8-22(2,28)17-14-23-9-10-25(17,29-4)21-24(23)11-12-26(3)18(23)13-15-6-7-16(27)20(30-21)19(15)24/h6-7,17-18,21,27-28H,5,8-14H2,1-4H3/t17-,18-,21-,22-,23-,24+,25-/m1/s1

> <INCHI_KEY>
BRTSNYPDACNMIP-FAWZKKEFSA-N

> <FORMULA>
C25H35NO4

> <MOLECULAR_WEIGHT>
413.5497

> <EXACT_MASS>
413.256608613

> <JCHEM_ACCEPTOR_COUNT>
5

> <JCHEM_AVERAGE_POLARIZABILITY>
46.49353945219326

> <JCHEM_BIOAVAILABILITY>
1

> <JCHEM_DONOR_COUNT>
2

> <JCHEM_FORMAL_CHARGE>
0

> <JCHEM_GHOSE_FILTER>
1

> <JCHEM_IUPAC>
(1S,2R,6S,14R,15R,16R)-16-[(2R)-2-hydroxypentan-2-yl]-15-methoxy-3-methyl-13-oxa-3-azahexacyclo[13.2.2.1²,⁸.0¹,⁶.0⁶,¹⁴.0⁷,¹²]icosa-7,9,11-trien-11-ol

> <ALOGPS_LOGP>
2.98

> <JCHEM_LOGP>
2.6628966289498353

> <ALOGPS_LOGS>
-3.56

> <JCHEM_MDDR_LIKE_RULE>
0

> <JCHEM_NUMBER_OF_RINGS>
6

> <JCHEM_PHYSIOLOGICAL_CHARGE>
1

> <JCHEM_PKA>
14.694643940235188

> <JCHEM_PKA_STRONGEST_ACIDIC>
7.496405194295808

> <JCHEM_PKA_STRONGEST_BASIC>
11.86700948125331

> <JCHEM_POLAR_SURFACE_AREA>
62.160000000000004

> <JCHEM_REFRACTIVITY>
115.55160000000001

> <JCHEM_ROTATABLE_BOND_COUNT>
4

> <JCHEM_RULE_OF_FIVE>
1

> <ALOGPS_SOLUBILITY>
1.14e-01 g/l

> <JCHEM_TRADITIONAL_IUPAC>
dihydroetorphine

> <JCHEM_VEBER_RULE>
0

> <DRUGBANK_ID>
DB01450

> <DRUG_GROUPS>
experimental; illicit

> <GENERIC_NAME>
Dihydroetorphine

$$$$

  Mrv1909 02072021312D          

 25 28  0  0  0  0            999 V2000
    0.0797   -1.5805    0.0000 C   0  0  0  0  0  0  0  0  0  0  0  0
    0.7941   -1.1680    0.0000 C   0  0  0  0  0  0  0  0  0  0  0  0
   -0.6347   -1.1680    0.0000 C   0  0  2  0  0  0  0  0  0  0  0  0
   -0.6347   -0.3429    0.0000 C   0  0  1  0  0  0  0  0  0  0  0  0
    0.0797    0.0694    0.0000 C   0  0  2  0  0  0  0  0  0  0  0  0
    0.7941   -0.3429    0.0000 C   0  0  2  0  0  0  0  0  0  0  0  0
    0.0797    0.8945    0.0000 C   0  0  0  0  0  0  0  0  0  0  0  0
    2.2933   -0.1853    0.0000 C   0  0  0  0  0  0  0  0  0  0  0  0
   -1.3492    0.0694    0.0000 C   0  0  0  0  0  0  0  0  0  0  0  0
    0.7941    1.3070    0.0000 C   0  0  0  0  0  0  0  0  0  0  0  0
    2.2933    1.1494    0.0000 C   0  0  0  0  0  0  0  0  0  0  0  0
    2.7782    0.4820    0.0000 C   0  0  0  0  0  0  0  0  0  0  0  0
   -1.3492   -1.5805    0.0000 C   0  0  0  0  0  0  0  0  0  0  0  0
   -2.0637   -0.3429    0.0000 C   0  0  0  0  0  0  0  0  0  0  0  0
    2.5482    1.9341    0.0000 O   0  0  0  0  0  0  0  0  0  0  0  0
   -2.0637   -1.1680    0.0000 C   0  0  0  0  0  0  0  0  0  0  0  0
   -2.7782   -1.5805    0.0000 O   0  0  0  0  0  0  0  0  0  0  0  0
   -0.6347    0.4820    0.0000 C   0  0  0  0  0  0  0  0  0  0  0  0
    0.0797   -0.7555    0.0000 H   0  0  0  0  0  0  0  0  0  0  0  0
    0.7941    0.4820    0.0000 H   0  0  0  0  0  0  0  0  0  0  0  0
    1.5086    0.0694    0.0000 C   0  0  2  0  0  0  0  0  0  0  0  0
    1.5086   -0.7555    0.0000 H   0  0  0  0  0  0  0  0  0  0  0  0
    1.5086    0.8945    0.0000 C   0  0  2  0  0  0  0  0  0  0  0  0
    1.5086    1.7195    0.0000 C   0  0  0  0  0  0  0  0  0  0  0  0
   -0.6716   -1.9341    0.0000 H   0  0  0  0  0  0  0  0  0  0  0  0
  2  1  1  0  0  0  0
  1  3  1  0  0  0  0
  3 13  1  0  0  0  0
  4  3  1  0  0  0  0
  4  9  1  0  0  0  0
  4 18  1  1  0  0  0
  5  4  1  0  0  0  0
  5  7  1  0  0  0  0
  5 19  1  6  0  0  0
  5  6  1  0  0  0  0
  6  2  1  0  0  0  0
  6 21  1  0  0  0  0
  6 20  1  1  0  0  0
  7 10  1  0  0  0  0
 21  8  1  0  0  0  0
  8 12  1  0  0  0  0
  9 14  2  0  0  0  0
 23 10  1  0  0  0  0
 23 11  1  0  0  0  0
 11 15  2  0  0  0  0
 11 12  1  0  0  0  0
 13 16  1  0  0  0  0
 14 16  1  0  0  0  0
 16 17  2  0  0  0  0
 21 23  1  0  0  0  0
 21 22  1  6  0  0  0
 23 24  1  1  0  0  0
  3 25  1  6  0  0  0
M  END
> <DATABASE_ID>
DB01451

> <DATABASE_NAME>
drugbank

> <SMILES>
[H][C@@]12CCC(=O)[C@@]1(C)CC[C@@]1([H])[C@@]2([H])CC[C@@]2([H])CC(=O)C=C[C@]12C

> <INCHI_IDENTIFIER>
InChI=1S/C19H26O2/c1-18-9-7-13(20)11-12(18)3-4-14-15-5-6-17(21)19(15,2)10-8-16(14)18/h7,9,12,14-16H,3-6,8,10-11H2,1-2H3/t12-,14-,15-,16-,18-,19-/m0/s1

> <INCHI_KEY>
WJIQCDPCDVWDDE-WZNAKSSCSA-N

> <FORMULA>
C19H26O2

> <MOLECULAR_WEIGHT>
286.415

> <EXACT_MASS>
286.193280077

> <JCHEM_ACCEPTOR_COUNT>
2

> <JCHEM_ATOM_COUNT>
47

> <JCHEM_AVERAGE_NEUTRAL_MICROSPECIES_CHARGE>
1.2563444883600425e-12

> <JCHEM_AVERAGE_POLARIZABILITY>
33.19569646813309

> <JCHEM_BIOAVAILABILITY>
1

> <JCHEM_DONOR_COUNT>
0

> <JCHEM_FORMAL_CHARGE>
0

> <JCHEM_GHOSE_FILTER>
1

> <JCHEM_IUPAC>
(3aS,3bR,5aS,9aR,9bS,11aS)-9a,11a-dimethyl-1H,2H,3H,3aH,3bH,4H,5H,5aH,6H,7H,9aH,9bH,10H,11H,11aH-cyclopenta[a]phenanthrene-1,7-dione

> <ALOGPS_LOGP>
3.39

> <JCHEM_LOGP>
3.9726088280000003

> <ALOGPS_LOGS>
-4.75

> <JCHEM_MDDR_LIKE_RULE>
0

> <JCHEM_NEUTRAL_CHARGE>
0

> <JCHEM_NUMBER_OF_RINGS>
4

> <JCHEM_PHYSIOLOGICAL_CHARGE>
0

> <JCHEM_PKA_STRONGEST_BASIC>
-4.899736605482941

> <JCHEM_POLAR_SURFACE_AREA>
34.14

> <JCHEM_REFRACTIVITY>
83.87409999999998

> <JCHEM_ROTATABLE_BOND_COUNT>
0

> <JCHEM_RULE_OF_FIVE>
1

> <ALOGPS_SOLUBILITY>
5.10e-03 g/l

> <JCHEM_TRADITIONAL_IUPAC>
Ogen

> <JCHEM_VEBER_RULE>
1

> <DRUGBANK_ID>
DB01451

> <DRUG_GROUPS>
experimental; illicit

> <GENERIC_NAME>
1-Androstenedione

> <SYNONYMS>
5alpha-androst-1-ene-3,17-dione

$$$$

  Mrv1718011231813022D          

 28 32  0  0  0  0            999 V2000
    0.0852   -0.4124    0.0000 C   0  0  1  0  0  0  0  0  0  0  0  0
    0.0852    0.4125    0.0000 C   0  0  0  0  0  0  0  0  0  0  0  0
   -0.6453    0.8367    0.0000 C   0  0  0  0  0  0  0  0  0  0  0  0
   -0.5981   -0.8367    0.0000 C   0  0  1  0  0  0  0  0  0  0  0  0
    0.7923   -0.8131    0.0000 C   0  0  2  0  0  0  0  0  0  0  0  0
   -1.1168    0.0354    0.0000 O   0  0  0  0  0  0  0  0  0  0  0  0
    1.5230   -0.4124    0.0000 C   0  0  1  0  0  0  0  0  0  0  0  0
    0.7923    0.8367    0.0000 C   0  0  0  0  0  0  0  0  0  0  0  0
    0.7923   -1.6381    0.0000 C   0  0  0  0  0  0  0  0  0  0  0  0
    1.5230    0.4361    0.0000 C   0  0  0  0  0  0  0  0  0  0  0  0
    2.4099   -0.7340    0.0000 N   0  0  0  0  0  0  0  0  0  0  0  0
   -0.5981   -1.6617    0.0000 C   0  0  2  0  0  0  0  0  0  0  0  0
   -0.6453    1.6618    0.0000 C   0  0  0  0  0  0  0  0  0  0  0  0
    0.1088   -2.0624    0.0000 C   0  0  0  0  0  0  0  0  0  0  0  0
    0.6111    0.2369    0.0000 C   0  0  0  0  0  0  0  0  0  0  0  0
   -1.3524    2.0860    0.0000 O   0  0  0  0  0  0  0  0  0  0  0  0
   -1.3053   -2.0860    0.0000 O   0  0  0  0  0  0  0  0  0  0  0  0
    2.4134    0.2290    0.0000 C   0  0  0  0  0  0  0  0  0  0  0  0
    0.7923    1.6618    0.0000 C   0  0  0  0  0  0  0  0  0  0  0  0
    0.1088    2.0625    0.0000 C   0  0  0  0  0  0  0  0  0  0  0  0
    2.7813   -1.4914    0.0000 C   0  0  0  0  0  0  0  0  0  0  0  0
    1.3663   -1.5107    0.0000 H   0  0  0  0  0  0  0  0  0  0  0  0
   -2.0669    1.6734    0.0000 C   0  0  0  0  0  0  0  0  0  0  0  0
   -2.7813    2.0860    0.0000 C   0  0  0  0  0  0  0  0  0  0  0  0
   -2.0669    0.8485    0.0000 O   0  0  0  0  0  0  0  0  0  0  0  0
   -2.0198   -1.6735    0.0000 C   0  0  0  0  0  0  0  0  0  0  0  0
   -2.7342   -2.0860    0.0000 C   0  0  0  0  0  0  0  0  0  0  0  0
   -2.0198   -0.8485    0.0000 O   0  0  0  0  0  0  0  0  0  0  0  0
  2  1  1  0  0  0  0
  4  1  1  0  0  0  0
  5  1  1  0  0  0  0
  1 15  1  1  0  0  0
  3  2  1  0  0  0  0
  8  2  2  0  0  0  0
 13  3  2  0  0  0  0
  6  3  1  0  0  0  0
  4  6  1  6  0  0  0
 12  4  1  0  0  0  0
  7  5  1  0  0  0  0
  9  5  1  0  0  0  0
  5 22  1  1  0  0  0
 10  7  1  0  0  0  0
  7 11  1  1  0  0  0
 19  8  1  0  0  0  0
 10  8  1  0  0  0  0
 14  9  2  0  0  0  0
 18 11  1  0  0  0  0
 21 11  1  0  0  0  0
 12 17  1  6  0  0  0
 14 12  1  0  0  0  0
 16 13  1  0  0  0  0
 20 13  1  0  0  0  0
 18 15  1  0  0  0  0
 20 19  2  0  0  0  0
 16 23  1  0  0  0  0
 23 24  1  0  0  0  0
 23 25  2  0  0  0  0
 17 26  1  0  0  0  0
 26 27  1  0  0  0  0
 26 28  2  0  0  0  0
M  END
> <DATABASE_ID>
DB01452

> <DATABASE_NAME>
drugbank

> <SMILES>
[H][C@@]12C=C[C@H](OC(C)=O)[C@@H]3OC4=C(OC(C)=O)C=CC5=C4[C@]13CCN(C)[C@@H]2C5

> <INCHI_IDENTIFIER>
InChI=1S/C21H23NO5/c1-11(23)25-16-6-4-13-10-15-14-5-7-17(26-12(2)24)20-21(14,8-9-22(15)3)18(13)19(16)27-20/h4-7,14-15,17,20H,8-10H2,1-3H3/t14-,15+,17-,20-,21-/m0/s1

> <INCHI_KEY>
GVGLGOZIDCSQPN-PVHGPHFFSA-N

> <FORMULA>
C21H23NO5

> <MOLECULAR_WEIGHT>
369.411

> <EXACT_MASS>
369.157622851

> <JCHEM_ACCEPTOR_COUNT>
4

> <JCHEM_ATOM_COUNT>
50

> <JCHEM_AVERAGE_POLARIZABILITY>
38.19242783020298

> <JCHEM_BIOAVAILABILITY>
1

> <JCHEM_DONOR_COUNT>
0

> <JCHEM_FORMAL_CHARGE>
0

> <JCHEM_GHOSE_FILTER>
1

> <JCHEM_IUPAC>
(1S,5R,13R,14S,17R)-10-(acetyloxy)-4-methyl-12-oxa-4-azapentacyclo[9.6.1.0^{1,13}.0^{5,17}.0^{7,18}]octadeca-7(18),8,10,15-tetraen-14-yl acetate

> <ALOGPS_LOGP>
2.30

> <JCHEM_LOGP>
1.5490089333333337

> <ALOGPS_LOGS>
-3.14

> <JCHEM_MDDR_LIKE_RULE>
0

> <JCHEM_NUMBER_OF_RINGS>
5

> <JCHEM_PHYSIOLOGICAL_CHARGE>
1

> <JCHEM_PKA_STRONGEST_BASIC>
9.09925519553095

> <JCHEM_POLAR_SURFACE_AREA>
65.07000000000001

> <JCHEM_REFRACTIVITY>
98.42540000000002

> <JCHEM_ROTATABLE_BOND_COUNT>
4

> <JCHEM_RULE_OF_FIVE>
1

> <ALOGPS_SOLUBILITY>
2.66e-01 g/l

> <JCHEM_TRADITIONAL_IUPAC>
(1S,5R,13R,14S,17R)-10-(acetyloxy)-4-methyl-12-oxa-4-azapentacyclo[9.6.1.0^{1,13}.0^{5,17}.0^{7,18}]octadeca-7(18),8,10,15-tetraen-14-yl acetate

> <JCHEM_VEBER_RULE>
0

> <DRUGBANK_ID>
DB01452

> <DRUG_GROUPS>
approved; illicit; investigational

> <GENERIC_NAME>
Diamorphine

> <SYNONYMS>
(5α,6α)-7,8-Didehydro-4,5-epoxy-17-methylmorphinan-3,6-diol diacetate (ester); 3,6-Diacetylmorphine; 7,8-Dihydro-4,5-alpha-epoxy-17-methylmorphinan-3,6-alpha-diol diacetate; Diacetylmorphine; Diamorphine; Heroin; O,O'-Diacetylmorphine

> <PRODUCTS>
Diamorphine Hydrochloride Inj 100mg/ml BP; Diamorphine Hydrochloride Inj 30mg/ml BP

> <SALTS>
Diamorphine hydrochloride

$$$$
1453
  Mrv0541 02231215302D          

 26 28  0  0  1  0            999 V2000
    2.0930   -1.0313    0.0000 O   0  0  0  0  0  0  0  0  0  0  0  0
    2.0930    2.2688    0.0000 O   0  0  0  0  0  0  0  0  0  0  0  0
    3.5220   -0.2063    0.0000 N   0  0  0  0  0  0  0  0  0  0  0  0
    3.5220    2.2688    0.0000 N   0  0  0  0  0  0  0  0  0  0  0  0
    3.5220    1.4438    0.0000 C   0  0  0  0  0  0  0  0  0  0  0  0
    2.8075    1.0313    0.0000 C   0  0  0  0  0  0  0  0  0  0  0  0
    4.2365    1.0313    0.0000 C   0  0  0  0  0  0  0  0  0  0  0  0
    2.8075    0.2063    0.0000 C   0  0  0  0  0  0  0  0  0  0  0  0
    4.2365    0.2063    0.0000 C   0  0  0  0  0  0  0  0  0  0  0  0
    3.5220   -1.0313    0.0000 C   0  0  0  0  0  0  0  0  0  0  0  0
    2.8075   -1.4438    0.0000 C   0  0  0  0  0  0  0  0  0  0  0  0
    4.2365    2.6813    0.0000 C   0  0  0  0  0  0  0  0  0  0  0  0
    2.8075    2.6813    0.0000 C   0  0  0  0  0  0  0  0  0  0  0  0
    2.8075   -2.2688    0.0000 C   0  0  0  0  0  0  0  0  0  0  0  0
    2.8075    3.5063    0.0000 C   0  0  0  0  0  0  0  0  0  0  0  0
    4.2365    3.5063    0.0000 C   0  0  0  0  0  0  0  0  0  0  0  0
    4.9509    2.2688    0.0000 C   0  0  0  0  0  0  0  0  0  0  0  0
    3.5220   -2.6813    0.0000 C   0  0  0  0  0  0  0  0  0  0  0  0
    2.0930   -2.6813    0.0000 C   0  0  0  0  0  0  0  0  0  0  0  0
    2.0930    3.9188    0.0000 C   0  0  0  0  0  0  0  0  0  0  0  0
    4.9509    3.9188    0.0000 C   0  0  0  0  0  0  0  0  0  0  0  0
    5.6655    2.6813    0.0000 C   0  0  0  0  0  0  0  0  0  0  0  0
    5.6655    3.5063    0.0000 C   0  0  0  0  0  0  0  0  0  0  0  0
    3.5220   -3.5063    0.0000 C   0  0  0  0  0  0  0  0  0  0  0  0
    2.0930   -3.5063    0.0000 C   0  0  0  0  0  0  0  0  0  0  0  0
    2.8075   -3.9188    0.0000 C   0  0  0  0  0  0  0  0  0  0  0  0
  1 11  1  0  0  0  0
  2 13  2  0  0  0  0
  3  8  1  0  0  0  0
  3  9  1  0  0  0  0
  3 10  1  0  0  0  0
  4  5  1  0  0  0  0
  4 12  1  0  0  0  0
  4 13  1  0  0  0  0
  5  6  1  0  0  0  0
  5  7  1  0  0  0  0
  6  8  1  0  0  0  0
  7  9  1  0  0  0  0
 10 11  1  0  0  0  0
 11 14  1  0  0  0  0
 12 16  2  0  0  0  0
 12 17  1  0  0  0  0
 13 15  1  0  0  0  0
 14 18  2  0  0  0  0
 14 19  1  0  0  0  0
 15 20  1  0  0  0  0
 16 21  1  0  0  0  0
 17 22  2  0  0  0  0
 18 24  1  0  0  0  0
 19 25  2  0  0  0  0
 21 23  2  0  0  0  0
 22 23  1  0  0  0  0
 24 26  2  0  0  0  0
 25 26  1  0  0  0  0
M  END
> <DATABASE_ID>
DB01453

> <DATABASE_NAME>
drugbank

> <SMILES>
CCC(=O)N(C1CCN(CC(O)C2=CC=CC=C2)CC1)C1=CC=CC=C1

> <INCHI_IDENTIFIER>
InChI=1S/C22H28N2O2/c1-2-22(26)24(19-11-7-4-8-12-19)20-13-15-23(16-14-20)17-21(25)18-9-5-3-6-10-18/h3-12,20-21,25H,2,13-17H2,1H3

> <INCHI_KEY>
JEFVHLMGRUJLET-UHFFFAOYSA-N

> <FORMULA>
C22H28N2O2

> <MOLECULAR_WEIGHT>
352.4699

> <EXACT_MASS>
352.21507815

> <JCHEM_ACCEPTOR_COUNT>
3

> <JCHEM_AVERAGE_POLARIZABILITY>
39.711842255268564

> <JCHEM_BIOAVAILABILITY>
1

> <JCHEM_DONOR_COUNT>
1

> <JCHEM_FORMAL_CHARGE>
0

> <JCHEM_GHOSE_FILTER>
1

> <JCHEM_IUPAC>
N-[1-(2-hydroxy-2-phenylethyl)piperidin-4-yl]-N-phenylpropanamide

> <ALOGPS_LOGP>
2.96

> <JCHEM_LOGP>
2.8965024013333327

> <ALOGPS_LOGS>
-3.49

> <JCHEM_MDDR_LIKE_RULE>
1

> <JCHEM_NUMBER_OF_RINGS>
3

> <JCHEM_PHYSIOLOGICAL_CHARGE>
1

> <JCHEM_PKA_STRONGEST_ACIDIC>
14.111603636748313

> <JCHEM_PKA_STRONGEST_BASIC>
8.279798628573786

> <JCHEM_POLAR_SURFACE_AREA>
43.78

> <JCHEM_REFRACTIVITY>
104.69000000000004

> <JCHEM_ROTATABLE_BOND_COUNT>
6

> <JCHEM_RULE_OF_FIVE>
1

> <ALOGPS_SOLUBILITY>
1.14e-01 g/l

> <JCHEM_TRADITIONAL_IUPAC>
β-hydroxyfentanyl

> <JCHEM_VEBER_RULE>
0

> <DRUGBANK_ID>
DB01453

> <DRUG_GROUPS>
experimental; illicit

> <GENERIC_NAME>
Beta-hydroxyfentanyl

$$$$
1454
  Mrv0541 02231215302D          

 14 15  0  0  1  0            999 V2000
    6.7171    0.4081    0.0000 O   0  0  0  0  0  0  0  0  0  0  0  0
    6.7171   -0.9195    0.0000 O   0  0  0  0  0  0  0  0  0  0  0  0
    2.3643    0.5693    0.0000 N   0  0  0  0  0  0  0  0  0  0  0  0
    3.0789    0.1568    0.0000 C   0  0  0  0  0  0  0  0  0  0  0  0
    3.7932    0.5693    0.0000 C   0  0  0  0  0  0  0  0  0  0  0  0
    4.5077    0.1568    0.0000 C   0  0  0  0  0  0  0  0  0  0  0  0
    3.0789   -0.6682    0.0000 C   0  0  0  0  0  0  0  0  0  0  0  0
    5.2220    0.5693    0.0000 C   0  0  0  0  0  0  0  0  0  0  0  0
    5.9365    0.1568    0.0000 C   0  0  0  0  0  0  0  0  0  0  0  0
    4.5077   -0.6682    0.0000 C   0  0  0  0  0  0  0  0  0  0  0  0
    5.9365   -0.6682    0.0000 C   0  0  0  0  0  0  0  0  0  0  0  0
    5.2220   -1.0807    0.0000 C   0  0  0  0  0  0  0  0  0  0  0  0
    1.6499    0.1568    0.0000 C   0  0  0  0  0  0  0  0  0  0  0  0
    7.1986   -0.2558    0.0000 C   0  0  0  0  0  0  0  0  0  0  0  0
  1  9  1  0  0  0  0
  1 14  1  0  0  0  0
  2 11  1  0  0  0  0
  2 14  1  0  0  0  0
  3  4  1  0  0  0  0
  3 13  1  0  0  0  0
  4  5  1  0  0  0  0
  4  7  1  0  0  0  0
  5  6  1  0  0  0  0
  6  8  2  0  0  0  0
  6 10  1  0  0  0  0
  8  9  1  0  0  0  0
  9 11  2  0  0  0  0
 10 12  2  0  0  0  0
 11 12  1  0  0  0  0
M  END
> <DATABASE_ID>
DB01454

> <DATABASE_NAME>
drugbank

> <SMILES>
CNC(C)CC1=CC2=C(OCO2)C=C1

> <INCHI_IDENTIFIER>
InChI=1S/C11H15NO2/c1-8(12-2)5-9-3-4-10-11(6-9)14-7-13-10/h3-4,6,8,12H,5,7H2,1-2H3

> <INCHI_KEY>
SHXWCVYOXRDMCX-UHFFFAOYSA-N

> <FORMULA>
C11H15NO2

> <MOLECULAR_WEIGHT>
193.2423

> <EXACT_MASS>
193.110278729

> <JCHEM_ACCEPTOR_COUNT>
3

> <JCHEM_AVERAGE_POLARIZABILITY>
21.49311255736862

> <JCHEM_BIOAVAILABILITY>
1

> <JCHEM_DONOR_COUNT>
1

> <JCHEM_FORMAL_CHARGE>
0

> <JCHEM_GHOSE_FILTER>
1

> <JCHEM_IUPAC>
[1-(2H-1,3-benzodioxol-5-yl)propan-2-yl](methyl)amine

> <ALOGPS_LOGP>
1.65

> <JCHEM_LOGP>
1.8600643429999997

> <ALOGPS_LOGS>
-1.78

> <JCHEM_MDDR_LIKE_RULE>
0

> <JCHEM_NUMBER_OF_RINGS>
2

> <JCHEM_PHYSIOLOGICAL_CHARGE>
1

> <JCHEM_PKA_STRONGEST_BASIC>
10.13837113850827

> <JCHEM_POLAR_SURFACE_AREA>
30.490000000000002

> <JCHEM_REFRACTIVITY>
54.246700000000004

> <JCHEM_ROTATABLE_BOND_COUNT>
3

> <JCHEM_RULE_OF_FIVE>
1

> <ALOGPS_SOLUBILITY>
3.22e+00 g/l

> <JCHEM_TRADITIONAL_IUPAC>
MDMA

> <JCHEM_VEBER_RULE>
1

> <DRUGBANK_ID>
DB01454

> <DRUG_GROUPS>
experimental; illicit; investigational

> <GENERIC_NAME>
Midomafetamine

> <SYNONYMS>
3,4-Methylenedioxymethamphetamine; Ecstasy; MDMA; Methylenedioxymethamphetamine

> <SALTS>
Midomafetamine hydrochloride

$$$$

  Mrv1909 02072021332D          

 24 27  0  0  0  0            999 V2000
   -2.0599   -0.5160    0.0000 C   0  0  0  0  0  0  0  0  0  0  0  0
   -2.0599   -1.3469    0.0000 C   0  0  1  0  0  0  0  0  0  0  0  0
   -1.3495   -1.7574    0.0000 C   0  0  0  0  0  0  0  0  0  0  0  0
   -0.6338   -1.3469    0.0000 C   0  0  0  0  0  0  0  0  0  0  0  0
   -0.6338   -0.5160    0.0000 C   0  0  2  0  0  0  0  0  0  0  0  0
   -1.3495   -0.1056    0.0000 C   0  0  0  0  0  0  0  0  0  0  0  0
    0.0764   -0.1056    0.0000 C   0  0  2  0  0  0  0  0  0  0  0  0
    0.7921   -0.5160    0.0000 C   0  0  1  0  0  0  0  0  0  0  0  0
    0.7921   -1.3469    0.0000 C   0  0  0  0  0  0  0  0  0  0  0  0
    0.0764   -1.7574    0.0000 C   0  0  0  0  0  0  0  0  0  0  0  0
    1.5078   -0.1056    0.0000 C   0  0  1  0  0  0  0  0  0  0  0  0
    1.5078    0.7152    0.0000 C   0  0  2  0  0  0  0  0  0  0  0  0
    0.7921    1.1265    0.0000 C   0  0  0  0  0  0  0  0  0  0  0  0
    0.0764    0.7152    0.0000 C   0  0  0  0  0  0  0  0  0  0  0  0
    2.2871    0.9681    0.0000 C   0  0  2  0  0  0  0  0  0  0  0  0
    2.7756    0.3047    0.0000 C   0  0  0  0  0  0  0  0  0  0  0  0
    2.2871   -0.3631    0.0000 C   0  0  0  0  0  0  0  0  0  0  0  0
    2.5445    1.7574    0.0000 O   0  0  0  0  0  0  0  0  0  0  0  0
    1.5078    1.5415    0.0000 C   0  0  0  0  0  0  0  0  0  0  0  0
    1.5078   -0.9365    0.0000 H   0  0  0  0  0  0  0  0  0  0  0  0
    0.7921    0.3047    0.0000 H   0  0  0  0  0  0  0  0  0  0  0  0
    0.0764   -0.9365    0.0000 H   0  0  0  0  0  0  0  0  0  0  0  0
   -0.6338    0.3047    0.0000 H   0  0  0  0  0  0  0  0  0  0  0  0
   -2.7756   -1.7574    0.0000 O   0  0  0  0  0  0  0  0  0  0  0  0
  1  2  1  0  0  0  0
  2  3  1  0  0  0  0
  3  4  1  0  0  0  0
  4  5  1  0  0  0  0
  5  6  1  0  0  0  0
  1  6  1  0  0  0  0
  5  7  1  0  0  0  0
  8  7  1  0  0  0  0
  9  8  1  0  0  0  0
 10  9  1  0  0  0  0
  4 10  2  0  0  0  0
  8 11  1  0  0  0  0
 11 12  1  0  0  0  0
 12 13  1  0  0  0  0
 13 14  1  0  0  0  0
  7 14  1  0  0  0  0
 12 15  1  0  0  0  0
 16 15  1  0  0  0  0
 17 16  1  0  0  0  0
 11 17  1  0  0  0  0
 15 18  1  1  0  0  0
 12 19  1  1  0  0  0
 11 20  1  6  0  0  0
  8 21  1  1  0  0  0
  7 22  1  6  0  0  0
  5 23  1  1  0  0  0
  2 24  1  1  0  0  0
M  END
> <DATABASE_ID>
DB01455

> <DATABASE_NAME>
drugbank

> <SMILES>
[H][C@@]12CC[C@H](O)[C@@]1(C)CC[C@]1([H])[C@@]3([H])CC[C@H](O)CC3=CC[C@@]21[H]

> <INCHI_IDENTIFIER>
InChI=1S/C18H28O2/c1-18-9-8-14-13-5-3-12(19)10-11(13)2-4-15(14)16(18)6-7-17(18)20/h2,12-17,19-20H,3-10H2,1H3/t12-,13-,14+,15+,16-,17-,18-/m0/s1

> <INCHI_KEY>
VVUQRXPUVKXAIO-XFUVECHXSA-N

> <FORMULA>
C18H28O2

> <MOLECULAR_WEIGHT>
276.4137

> <EXACT_MASS>
276.20893014

> <JCHEM_ACCEPTOR_COUNT>
2

> <JCHEM_ATOM_COUNT>
48

> <JCHEM_AVERAGE_NEUTRAL_MICROSPECIES_CHARGE>
1.6174974343774184e-08

> <JCHEM_AVERAGE_POLARIZABILITY>
33.210168027715895

> <JCHEM_BIOAVAILABILITY>
1

> <JCHEM_DONOR_COUNT>
2

> <JCHEM_FORMAL_CHARGE>
0

> <JCHEM_GHOSE_FILTER>
1

> <JCHEM_IUPAC>
(1S,3aS,3bR,7S,9aR,9bS,11aS)-11a-methyl-1H,2H,3H,3aH,3bH,4H,6H,7H,8H,9H,9aH,9bH,10H,11H,11aH-cyclopenta[a]phenanthrene-1,7-diol

> <ALOGPS_LOGP>
3.06

> <JCHEM_LOGP>
2.4981302296666668

> <ALOGPS_LOGS>
-3.63

> <JCHEM_MDDR_LIKE_RULE>
0

> <JCHEM_NEUTRAL_CHARGE>
0

> <JCHEM_NUMBER_OF_RINGS>
4

> <JCHEM_PHYSIOLOGICAL_CHARGE>
0

> <JCHEM_PKA>
19.377698803650205

> <JCHEM_PKA_STRONGEST_ACIDIC>
18.22693865327216

> <JCHEM_PKA_STRONGEST_BASIC>
-0.7654641939741446

> <JCHEM_POLAR_SURFACE_AREA>
40.46

> <JCHEM_REFRACTIVITY>
81.00609999999998

> <JCHEM_ROTATABLE_BOND_COUNT>
0

> <JCHEM_RULE_OF_FIVE>
1

> <ALOGPS_SOLUBILITY>
6.45e-02 g/l

> <JCHEM_TRADITIONAL_IUPAC>
Ogen

> <JCHEM_VEBER_RULE>
0

> <DRUGBANK_ID>
DB01455

> <DRUG_GROUPS>
experimental; illicit

> <GENERIC_NAME>
19-Nor-5-androstenediol

$$$$
 
  Mrv1533006051508022D          
 
 24 27  0  0  1  0            999 V2000
   13.5960  -10.8940    0.0000 C   0  0  2  0  0  0  0  0  0  0  0  0
   12.8669  -10.5080    0.0000 C   0  0  1  0  0  0  0  0  0  0  0  0
   14.2823  -10.4651    0.0000 C   0  0  1  0  0  0  0  0  0  0  0  0
   13.5960  -11.7518    0.0000 C   0  0  0  0  0  0  0  0  0  0  0  0
   12.1378  -10.8940    0.0000 C   0  0  2  0  0  0  0  0  0  0  0  0
   12.8669   -9.6502    0.0000 C   0  0  0  0  0  0  0  0  0  0  0  0
   14.2823   -9.6502    0.0000 C   0  0  2  0  0  0  0  0  0  0  0  0
   15.7405  -10.4651    0.0000 C   0  0  0  0  0  0  0  0  0  0  0  0
   12.8669  -12.1378    0.0000 C   0  0  0  0  0  0  0  0  0  0  0  0
   12.1378  -11.7089    0.0000 C   0  0  0  0  0  0  0  0  0  0  0  0
   11.4516  -10.5080    0.0000 C   0  0  0  0  0  0  0  0  0  0  0  0
   12.1378   -9.9933    0.0000 C   0  0  0  0  0  0  0  0  0  0  0  0
   13.5960   -9.2213    0.0000 C   0  0  0  0  0  0  0  0  0  0  0  0
   15.0114   -9.2213    0.0000 C   0  0  0  0  0  0  0  0  0  0  0  0
   14.2394   -8.6208    0.0000 C   0  0  0  0  0  0  0  0  0  0  0  0
   15.7405   -9.6502    0.0000 C   0  0  0  0  0  0  0  0  0  0  0  0
   11.4516  -12.1378    0.0000 C   0  0  0  0  0  0  0  0  0  0  0  0
   10.7224  -10.8940    0.0000 C   0  0  0  0  0  0  0  0  0  0  0  0
   15.0114   -8.4064    0.0000 O   0  0  0  0  0  0  0  0  0  0  0  0
   10.7224  -11.7089    0.0000 C   0  0  0  0  0  0  0  0  0  0  0  0
   10.0362  -12.1378    0.0000 O   0  0  0  0  0  0  0  0  0  0  0  0
   13.5960  -10.0791    0.0000 H   0  0  0  0  0  0  0  0  0  0  0  0
   12.8669  -11.2800    0.0000 H   0  0  0  0  0  0  0  0  0  0  0  0
   14.2823  -11.2800    0.0000 H   0  0  0  0  0  0  0  0  0  0  0  0
  1  2  1  0  0  0  0
  1  3  1  0  0  0  0
  1  4  1  0  0  0  0
  2  5  1  0  0  0  0
  2  6  1  0  0  0  0
  3  7  1  0  0  0  0
  3  8  1  0  0  0  0
  4  9  1  0  0  0  0
  5 10  1  0  0  0  0
  5 11  1  0  0  0  0
  5 12  1  1  0  0  0
  6 13  1  0  0  0  0
  7 14  1  0  0  0  0
  7 15  1  1  0  0  0
  8 16  1  0  0  0  0
 10 17  1  0  0  0  0
 11 18  1  0  0  0  0
 14 19  2  0  0  0  0
 17 20  1  0  0  0  0
 20 21  2  0  0  0  0
  7 13  1  0  0  0  0
  9 10  2  0  0  0  0
 14 16  1  0  0  0  0
 18 20  1  0  0  0  0
  1 22  1  1  0  0  0
  2 23  1  6  0  0  0
  3 24  1  6  0  0  0
M  END
> <DATABASE_ID>
DB01456

> <DATABASE_NAME>
drugbank

> <SMILES>
[H][C@@]12CCC(=O)[C@@]1(C)CC[C@@]1([H])[C@@]2([H])CC=C2CC(=O)CC[C@]12C

> <INCHI_IDENTIFIER>
InChI=1S/C19H26O2/c1-18-9-7-13(20)11-12(18)3-4-14-15-5-6-17(21)19(15,2)10-8-16(14)18/h3,14-16H,4-11H2,1-2H3/t14-,15-,16-,18-,19-/m0/s1

> <INCHI_KEY>
SQGZFRITSMYKRH-QAGGRKNESA-N

> <FORMULA>
C19H26O2

> <MOLECULAR_WEIGHT>
286.415

> <EXACT_MASS>
286.193280077

> <JCHEM_ACCEPTOR_COUNT>
2

> <JCHEM_ATOM_COUNT>
47

> <JCHEM_AVERAGE_POLARIZABILITY>
33.22733880308189

> <JCHEM_BIOAVAILABILITY>
1

> <JCHEM_DONOR_COUNT>
0

> <JCHEM_FORMAL_CHARGE>
0

> <JCHEM_GHOSE_FILTER>
1

> <JCHEM_IUPAC>
(1S,2R,10R,11S,15S)-2,15-dimethyltetracyclo[8.7.0.0²,⁷.0¹¹,¹⁵]heptadec-7-ene-5,14-dione

> <ALOGPS_LOGP>
3.21

> <JCHEM_LOGP>
3.569205857

> <ALOGPS_LOGS>
-3.89

> <JCHEM_MDDR_LIKE_RULE>
0

> <JCHEM_NUMBER_OF_RINGS>
4

> <JCHEM_PHYSIOLOGICAL_CHARGE>
0

> <JCHEM_PKA>
19.957810773803896

> <JCHEM_PKA_STRONGEST_ACIDIC>
16.227768270305805

> <JCHEM_PKA_STRONGEST_BASIC>
-7.151182383784818

> <JCHEM_POLAR_SURFACE_AREA>
34.14

> <JCHEM_REFRACTIVITY>
83.63079999999998

> <JCHEM_ROTATABLE_BOND_COUNT>
0

> <JCHEM_RULE_OF_FIVE>
1

> <ALOGPS_SOLUBILITY>
3.66e-02 g/l

> <JCHEM_TRADITIONAL_IUPAC>
(1S,2R,10R,11S,15S)-2,15-dimethyltetracyclo[8.7.0.0²,⁷.0¹¹,¹⁵]heptadec-7-ene-5,14-dione

> <JCHEM_VEBER_RULE>
1

> <DRUGBANK_ID>
DB01456

> <DRUG_GROUPS>
experimental; illicit

> <GENERIC_NAME>
5-androstenedione

> <SYNONYMS>
5-Androstene-3,17-dione; androst-5-ene-3,17-dione; delta5-Androstene-3,17-dione

$$$$

  Mrv1652306131721572D          

 17 17  0  0  0  0            999 V2000
   -0.7145    3.7125    0.0000 C   0  0  0  0  0  0  0  0  0  0  0  0
    0.0000    3.3000    0.0000 C   0  0  0  0  0  0  0  0  0  0  0  0
    0.0000    2.4750    0.0000 C   0  0  0  0  0  0  0  0  0  0  0  0
    0.7145    2.0625    0.0000 S   0  0  0  0  0  0  0  0  0  0  0  0
    0.7145    1.2375    0.0000 C   0  0  0  0  0  0  0  0  0  0  0  0
    1.4289    0.8250    0.0000 C   0  0  0  0  0  0  0  0  0  0  0  0
    1.4289   -0.0000    0.0000 C   0  0  0  0  0  0  0  0  0  0  0  0
    0.7145   -0.4125    0.0000 C   0  0  0  0  0  0  0  0  0  0  0  0
    0.0000    0.0000    0.0000 C   0  0  0  0  0  0  0  0  0  0  0  0
    0.0000    0.8250    0.0000 C   0  0  0  0  0  0  0  0  0  0  0  0
   -0.7145    1.2375    0.0000 O   0  0  0  0  0  0  0  0  0  0  0  0
   -0.7145    2.0625    0.0000 C   0  0  0  0  0  0  0  0  0  0  0  0
    0.7145   -1.2375    0.0000 C   0  0  0  0  0  0  0  0  0  0  0  0
   -0.0000   -1.6500    0.0000 C   0  0  0  0  0  0  0  0  0  0  0  0
   -0.0000   -2.4750    0.0000 N   0  0  0  0  0  0  0  0  0  0  0  0
    2.1434   -0.4125    0.0000 O   0  0  0  0  0  0  0  0  0  0  0  0
    2.1434   -1.2375    0.0000 C   0  0  0  0  0  0  0  0  0  0  0  0
  1  2  1  0  0  0  0
  2  3  1  0  0  0  0
  3  4  1  0  0  0  0
  4  5  1  0  0  0  0
  5  6  2  0  0  0  0
  6  7  1  0  0  0  0
  7  8  2  0  0  0  0
  8  9  1  0  0  0  0
  9 10  2  0  0  0  0
  5 10  1  0  0  0  0
 10 11  1  0  0  0  0
 11 12  1  0  0  0  0
  8 13  1  0  0  0  0
 13 14  1  0  0  0  0
 14 15  1  0  0  0  0
  7 16  1  0  0  0  0
 16 17  1  0  0  0  0
M  END
> <DATABASE_ID>
DB01458

> <DATABASE_NAME>
drugbank

> <SMILES>
CCCSC1=CC(OC)=C(CCN)C=C1OC

> <INCHI_IDENTIFIER>
InChI=1S/C13H21NO2S/c1-4-7-17-13-9-11(15-2)10(5-6-14)8-12(13)16-3/h8-9H,4-7,14H2,1-3H3

> <INCHI_KEY>
OLEVEPDJOFPJTF-UHFFFAOYSA-N

> <FORMULA>
C13H21NO2S

> <MOLECULAR_WEIGHT>
255.38

> <EXACT_MASS>
255.129300094

> <JCHEM_ACCEPTOR_COUNT>
3

> <JCHEM_ATOM_COUNT>
38

> <JCHEM_AVERAGE_POLARIZABILITY>
29.579421611783097

> <JCHEM_BIOAVAILABILITY>
1

> <JCHEM_DONOR_COUNT>
1

> <JCHEM_FORMAL_CHARGE>
0

> <JCHEM_GHOSE_FILTER>
1

> <JCHEM_IUPAC>
2-[2,5-dimethoxy-4-(propylsulfanyl)phenyl]ethan-1-amine

> <ALOGPS_LOGP>
2.78

> <JCHEM_LOGP>
2.4761024493333332

> <ALOGPS_LOGS>
-3.40

> <JCHEM_MDDR_LIKE_RULE>
0

> <JCHEM_NUMBER_OF_RINGS>
1

> <JCHEM_PHYSIOLOGICAL_CHARGE>
1

> <JCHEM_PKA_STRONGEST_BASIC>
9.68748772785447

> <JCHEM_POLAR_SURFACE_AREA>
44.480000000000004

> <JCHEM_REFRACTIVITY>
74.29350000000002

> <JCHEM_ROTATABLE_BOND_COUNT>
7

> <JCHEM_RULE_OF_FIVE>
1

> <ALOGPS_SOLUBILITY>
1.01e-01 g/l

> <JCHEM_TRADITIONAL_IUPAC>
2-[2,5-dimethoxy-4-(propylsulfanyl)phenyl]ethanamine

> <JCHEM_VEBER_RULE>
0

> <DRUGBANK_ID>
DB01458

> <DRUG_GROUPS>
experimental; illicit

> <GENERIC_NAME>
2,5-Dimethoxy-4-(n)-propylthiophenethylamine

> <SYNONYMS>
2,5-dimethoxy-4-propylthiophenethylamine

$$$$
1459
  Mrv0541 02231215302D          

 37 41  0  0  0  0            999 V2000
    5.1661   -2.3526    0.0000 O   0  0  0  0  0  0  0  0  0  0  0  0
    3.5649   -4.4147    0.0000 O   0  0  0  0  0  0  0  0  0  0  0  0
    4.6285    0.6639    0.0000 N   0  0  0  0  0  0  0  0  0  0  0  0
    3.8596   -1.6886    0.0000 N   0  0  0  0  0  0  0  0  0  0  0  0
    3.8596   -3.0165    0.0000 N   0  0  0  0  0  0  0  0  0  0  0  0
    4.3800    2.9150    0.0000 N   0  0  0  0  0  0  0  0  0  0  0  0
    4.1159   -0.9045    0.0000 C   0  0  0  0  0  0  0  0  0  0  0  0
    4.9232   -0.7343    0.0000 C   0  0  0  0  0  0  0  0  0  0  0  0
    3.5649   -0.2904    0.0000 C   0  0  0  0  0  0  0  0  0  0  0  0
    5.1795    0.0498    0.0000 C   0  0  0  0  0  0  0  0  0  0  0  0
    3.8213    0.4938    0.0000 C   0  0  0  0  0  0  0  0  0  0  0  0
    4.8848    1.4481    0.0000 C   0  0  0  0  0  0  0  0  0  0  0  0
    5.6921    1.6183    0.0000 C   0  0  0  0  0  0  0  0  0  0  0  0
    3.0790   -1.9401    0.0000 C   0  0  0  0  0  0  0  0  0  0  0  0
    5.9484    2.4024    0.0000 C   0  0  0  0  0  0  0  0  0  0  0  0
    4.3411   -2.3526    0.0000 C   0  0  0  0  0  0  0  0  0  0  0  0
    3.0790   -2.7651    0.0000 C   0  0  0  0  0  0  0  0  0  0  0  0
    6.7326    2.1461    0.0000 C   0  0  0  0  0  0  0  0  0  0  0  0
    6.2047    3.1866    0.0000 C   0  0  0  0  0  0  0  0  0  0  0  0
    2.3645   -1.5276    0.0000 C   0  0  0  0  0  0  0  0  0  0  0  0
    2.3645   -3.1776    0.0000 C   0  0  0  0  0  0  0  0  0  0  0  0
    4.1159   -3.8006    0.0000 C   0  0  0  0  0  0  0  0  0  0  0  0
    5.1642    2.6588    0.0000 C   0  0  0  0  0  0  0  0  0  0  0  0
    1.6500   -1.9401    0.0000 C   0  0  0  0  0  0  0  0  0  0  0  0
    1.6500   -2.7651    0.0000 C   0  0  0  0  0  0  0  0  0  0  0  0
    7.3466    2.6971    0.0000 C   0  0  0  0  0  0  0  0  0  0  0  0
    5.6537    3.8006    0.0000 C   0  0  0  0  0  0  0  0  0  0  0  0
    6.9027    1.3388    0.0000 C   0  0  0  0  0  0  0  0  0  0  0  0
    7.0120    3.3567    0.0000 C   0  0  0  0  0  0  0  0  0  0  0  0
    4.9232   -3.9708    0.0000 C   0  0  0  0  0  0  0  0  0  0  0  0
    8.1308    2.4408    0.0000 C   0  0  0  0  0  0  0  0  0  0  0  0
    5.9100    4.5848    0.0000 C   0  0  0  0  0  0  0  0  0  0  0  0
    7.6868    1.0826    0.0000 C   0  0  0  0  0  0  0  0  0  0  0  0
    7.2682    4.1410    0.0000 C   0  0  0  0  0  0  0  0  0  0  0  0
    5.1795   -4.7550    0.0000 C   0  0  0  0  0  0  0  0  0  0  0  0
    8.3009    1.6335    0.0000 C   0  0  0  0  0  0  0  0  0  0  0  0
    6.7173    4.7550    0.0000 C   0  0  0  0  0  0  0  0  0  0  0  0
  1 16  2  0  0  0  0
  2 22  2  0  0  0  0
  3 10  1  0  0  0  0
  3 11  1  0  0  0  0
  3 12  1  0  0  0  0
  4  7  1  0  0  0  0
  4 14  1  0  0  0  0
  4 16  1  0  0  0  0
  5 16  1  0  0  0  0
  5 17  1  0  0  0  0
  5 22  1  0  0  0  0
  6 23  3  0  0  0  0
  7  8  1  0  0  0  0
  7  9  1  0  0  0  0
  8 10  1  0  0  0  0
  9 11  1  0  0  0  0
 12 13  1  0  0  0  0
 13 15  1  0  0  0  0
 14 17  1  0  0  0  0
 14 20  2  0  0  0  0
 15 18  1  0  0  0  0
 15 19  1  0  0  0  0
 15 23  1  0  0  0  0
 17 21  2  0  0  0  0
 18 26  2  0  0  0  0
 18 28  1  0  0  0  0
 19 27  2  0  0  0  0
 19 29  1  0  0  0  0
 20 24  1  0  0  0  0
 21 25  1  0  0  0  0
 22 30  1  0  0  0  0
 24 25  2  0  0  0  0
 26 31  1  0  0  0  0
 27 32  1  0  0  0  0
 28 33  2  0  0  0  0
 29 34  2  0  0  0  0
 30 35  1  0  0  0  0
 31 36  2  0  0  0  0
 32 37  2  0  0  0  0
 33 36  1  0  0  0  0
 34 37  1  0  0  0  0
M  END
> <DATABASE_ID>
DB01459

> <DATABASE_NAME>
drugbank

> <SMILES>
CCC(=O)N1C(=O)N(C2CCN(CCC(C#N)(C3=CC=CC=C3)C3=CC=CC=C3)CC2)C2=CC=CC=C12

> <INCHI_IDENTIFIER>
InChI=1S/C31H32N4O2/c1-2-29(36)35-28-16-10-9-15-27(28)34(30(35)37)26-17-20-33(21-18-26)22-19-31(23-32,24-11-5-3-6-12-24)25-13-7-4-8-14-25/h3-16,26H,2,17-22H2,1H3

> <INCHI_KEY>
FLKWNFFCSSJANB-UHFFFAOYSA-N

> <FORMULA>
C31H32N4O2

> <MOLECULAR_WEIGHT>
492.6114

> <EXACT_MASS>
492.252526288

> <JCHEM_ACCEPTOR_COUNT>
4

> <JCHEM_AVERAGE_POLARIZABILITY>
55.57782805239998

> <JCHEM_BIOAVAILABILITY>
1

> <JCHEM_DONOR_COUNT>
0

> <JCHEM_FORMAL_CHARGE>
0

> <JCHEM_GHOSE_FILTER>
0

> <JCHEM_IUPAC>
4-[4-(2-oxo-3-propanoyl-2,3-dihydro-1H-1,3-benzodiazol-1-yl)piperidin-1-yl]-2,2-diphenylbutanenitrile

> <ALOGPS_LOGP>
4.35

> <JCHEM_LOGP>
4.794030338333334

> <ALOGPS_LOGS>
-4.87

> <JCHEM_MDDR_LIKE_RULE>
1

> <JCHEM_NUMBER_OF_RINGS>
5

> <JCHEM_PHYSIOLOGICAL_CHARGE>
1

> <JCHEM_PKA_STRONGEST_BASIC>
8.320154204728038

> <JCHEM_POLAR_SURFACE_AREA>
67.65

> <JCHEM_REFRACTIVITY>
155.25199999999998

> <JCHEM_ROTATABLE_BOND_COUNT>
7

> <JCHEM_RULE_OF_FIVE>
1

> <ALOGPS_SOLUBILITY>
6.70e-03 g/l

> <JCHEM_TRADITIONAL_IUPAC>
bezitramide

> <JCHEM_VEBER_RULE>
0

> <DRUGBANK_ID>
DB01459

> <DRUG_GROUPS>
experimental; illicit; withdrawn

> <GENERIC_NAME>
Bezitramide

> <SYNONYMS>
Bezitramida; Bezitramide; Bezitramidum

> <INTERNATIONAL_BRANDS>
Burgodin 

$$$$
1460
  Mrv0541 02231215302D          

 16 17  0  0  0  0            999 V2000
    5.1796    1.0772    0.0000 N   0  0  0  0  0  0  0  0  0  0  0  0
    3.8597   -1.9892    0.0000 N   0  0  0  0  0  0  0  0  0  0  0  0
    4.9233    0.2930    0.0000 C   0  0  0  0  0  0  0  0  0  0  0  0
    4.1160    0.1228    0.0000 C   0  0  0  0  0  0  0  0  0  0  0  0
    3.8597   -0.6613    0.0000 C   0  0  0  0  0  0  0  0  0  0  0  0
    3.0791   -0.9128    0.0000 C   0  0  0  0  0  0  0  0  0  0  0  0
    4.6287    1.6912    0.0000 C   0  0  0  0  0  0  0  0  0  0  0  0
    5.9869    1.2473    0.0000 C   0  0  0  0  0  0  0  0  0  0  0  0
    3.0791   -1.7378    0.0000 C   0  0  0  0  0  0  0  0  0  0  0  0
    4.3412   -1.3253    0.0000 C   0  0  0  0  0  0  0  0  0  0  0  0
    2.3645   -0.5003    0.0000 C   0  0  0  0  0  0  0  0  0  0  0  0
    4.8849    2.4754    0.0000 C   0  0  0  0  0  0  0  0  0  0  0  0
    6.2433    2.0316    0.0000 C   0  0  0  0  0  0  0  0  0  0  0  0
    2.3645   -2.1504    0.0000 C   0  0  0  0  0  0  0  0  0  0  0  0
    1.6501   -0.9128    0.0000 C   0  0  0  0  0  0  0  0  0  0  0  0
    1.6501   -1.7378    0.0000 C   0  0  0  0  0  0  0  0  0  0  0  0
  1  3  1  0  0  0  0
  1  7  1  0  0  0  0
  1  8  1  0  0  0  0
  2  9  1  0  0  0  0
  2 10  1  0  0  0  0
  3  4  1  0  0  0  0
  4  5  1  0  0  0  0
  5  6  1  0  0  0  0
  5 10  2  0  0  0  0
  6  9  1  0  0  0  0
  6 11  2  0  0  0  0
  7 12  1  0  0  0  0
  8 13  1  0  0  0  0
  9 14  2  0  0  0  0
 11 15  1  0  0  0  0
 14 16  1  0  0  0  0
 15 16  2  0  0  0  0
M  END
> <DATABASE_ID>
DB01460

> <DATABASE_NAME>
drugbank

> <SMILES>
CCN(CC)CCC1=CNC2=CC=CC=C12

> <INCHI_IDENTIFIER>
InChI=1S/C14H20N2/c1-3-16(4-2)10-9-12-11-15-14-8-6-5-7-13(12)14/h5-8,11,15H,3-4,9-10H2,1-2H3

> <INCHI_KEY>
LSSUMOWDTKZHHT-UHFFFAOYSA-N

> <FORMULA>
C14H20N2

> <MOLECULAR_WEIGHT>
216.322

> <EXACT_MASS>
216.16264865

> <JCHEM_ACCEPTOR_COUNT>
1

> <JCHEM_AVERAGE_POLARIZABILITY>
26.405885870075906

> <JCHEM_BIOAVAILABILITY>
1

> <JCHEM_DONOR_COUNT>
1

> <JCHEM_FORMAL_CHARGE>
0

> <JCHEM_GHOSE_FILTER>
1

> <JCHEM_IUPAC>
diethyl[2-(1H-indol-3-yl)ethyl]amine

> <ALOGPS_LOGP>
3.64

> <JCHEM_LOGP>
3.0156816903333326

> <ALOGPS_LOGS>
-2.79

> <JCHEM_MDDR_LIKE_RULE>
0

> <JCHEM_NUMBER_OF_RINGS>
2

> <JCHEM_PHYSIOLOGICAL_CHARGE>
1

> <JCHEM_PKA_STRONGEST_ACIDIC>
17.16470262109799

> <JCHEM_PKA_STRONGEST_BASIC>
10.084544389605831

> <JCHEM_POLAR_SURFACE_AREA>
19.03

> <JCHEM_REFRACTIVITY>
69.9394

> <JCHEM_ROTATABLE_BOND_COUNT>
5

> <JCHEM_RULE_OF_FIVE>
1

> <ALOGPS_SOLUBILITY>
3.53e-01 g/l

> <JCHEM_TRADITIONAL_IUPAC>
diethyltryptamine

> <JCHEM_VEBER_RULE>
1

> <DRUGBANK_ID>
DB01460

> <DRUG_GROUPS>
experimental; illicit

> <GENERIC_NAME>
Diethyltryptamine

> <SYNONYMS>
3-(2-Diethylaminoethyl)indole; DET; N,N-Diethyltryptamine

$$$$
1461
  Mrv0541 02231215302D          

 24 25  0  0  0  0            999 V2000
    2.8876    0.0000    0.0000 O   0  0  0  0  0  0  0  0  0  0  0  0
    4.9501   -0.7145    0.0000 O   0  0  0  0  0  0  0  0  0  0  0  0
    4.9501    0.7145    0.0000 O   0  0  0  0  0  0  0  0  0  0  0  0
    7.0127   -1.4290    0.0000 N   0  0  0  0  0  0  0  0  0  0  0  0
    3.7126    0.0000    0.0000 C   0  0  0  0  0  0  0  0  0  0  0  0
    3.7126   -0.8250    0.0000 C   0  0  0  0  0  0  0  0  0  0  0  0
    3.7126    0.8250    0.0000 C   0  0  0  0  0  0  0  0  0  0  0  0
    4.5376    0.0000    0.0000 C   0  0  0  0  0  0  0  0  0  0  0  0
    4.4270   -1.2375    0.0000 C   0  0  0  0  0  0  0  0  0  0  0  0
    2.9981    1.2375    0.0000 C   0  0  0  0  0  0  0  0  0  0  0  0
    2.9981   -1.2375    0.0000 C   0  0  0  0  0  0  0  0  0  0  0  0
    4.4270    1.2375    0.0000 C   0  0  0  0  0  0  0  0  0  0  0  0
    2.4751    0.7145    0.0000 C   0  0  0  0  0  0  0  0  0  0  0  0
    5.7751   -0.7145    0.0000 C   0  0  0  0  0  0  0  0  0  0  0  0
    6.1876   -1.4290    0.0000 C   0  0  0  0  0  0  0  0  0  0  0  0
    4.4270   -2.0625    0.0000 C   0  0  0  0  0  0  0  0  0  0  0  0
    2.9981    2.0625    0.0000 C   0  0  0  0  0  0  0  0  0  0  0  0
    2.9981   -2.0625    0.0000 C   0  0  0  0  0  0  0  0  0  0  0  0
    4.4270    2.0625    0.0000 C   0  0  0  0  0  0  0  0  0  0  0  0
    3.7126   -2.4751    0.0000 C   0  0  0  0  0  0  0  0  0  0  0  0
    3.7126    2.4751    0.0000 C   0  0  0  0  0  0  0  0  0  0  0  0
    1.6500    0.7145    0.0000 C   0  0  0  0  0  0  0  0  0  0  0  0
    7.4252   -2.1435    0.0000 C   0  0  0  0  0  0  0  0  0  0  0  0
    7.4252   -0.7145    0.0000 C   0  0  0  0  0  0  0  0  0  0  0  0
  1  5  1  0  0  0  0
  1 13  1  0  0  0  0
  2  8  1  0  0  0  0
  2 14  1  0  0  0  0
  3  8  2  0  0  0  0
  4 15  1  0  0  0  0
  4 23  1  0  0  0  0
  4 24  1  0  0  0  0
  5  6  1  0  0  0  0
  5  7  1  0  0  0  0
  5  8  1  0  0  0  0
  6  9  2  0  0  0  0
  6 11  1  0  0  0  0
  7 10  2  0  0  0  0
  7 12  1  0  0  0  0
  9 16  1  0  0  0  0
 10 17  1  0  0  0  0
 11 18  2  0  0  0  0
 12 19  2  0  0  0  0
 13 22  1  0  0  0  0
 14 15  1  0  0  0  0
 16 20  2  0  0  0  0
 17 21  2  0  0  0  0
 18 20  1  0  0  0  0
 19 21  1  0  0  0  0
M  END
> <DATABASE_ID>
DB01461

> <DATABASE_NAME>
drugbank

> <SMILES>
CCOC(C(=O)OCCN(C)C)(C1=CC=CC=C1)C1=CC=CC=C1

> <INCHI_IDENTIFIER>
InChI=1S/C20H25NO3/c1-4-24-20(17-11-7-5-8-12-17,18-13-9-6-10-14-18)19(22)23-16-15-21(2)3/h5-14H,4,15-16H2,1-3H3

> <INCHI_KEY>
RHUWRJWFHUKVED-UHFFFAOYSA-N

> <FORMULA>
C20H25NO3

> <MOLECULAR_WEIGHT>
327.4174

> <EXACT_MASS>
327.183443671

> <JCHEM_ACCEPTOR_COUNT>
3

> <JCHEM_AVERAGE_POLARIZABILITY>
36.513385974326795

> <JCHEM_BIOAVAILABILITY>
1

> <JCHEM_DONOR_COUNT>
0

> <JCHEM_FORMAL_CHARGE>
0

> <JCHEM_GHOSE_FILTER>
1

> <JCHEM_IUPAC>
2-(dimethylamino)ethyl 2-ethoxy-2,2-diphenylacetate

> <ALOGPS_LOGP>
3.43

> <JCHEM_LOGP>
3.722020124666666

> <ALOGPS_LOGS>
-4.03

> <JCHEM_MDDR_LIKE_RULE>
0

> <JCHEM_NUMBER_OF_RINGS>
2

> <JCHEM_PHYSIOLOGICAL_CHARGE>
1

> <JCHEM_PKA_STRONGEST_BASIC>
8.417970119935502

> <JCHEM_POLAR_SURFACE_AREA>
38.77

> <JCHEM_REFRACTIVITY>
95.77010000000001

> <JCHEM_ROTATABLE_BOND_COUNT>
9

> <JCHEM_RULE_OF_FIVE>
1

> <ALOGPS_SOLUBILITY>
3.04e-02 g/l

> <JCHEM_TRADITIONAL_IUPAC>
dimenoxadol

> <JCHEM_VEBER_RULE>
1

> <DRUGBANK_ID>
DB01461

> <DRUG_GROUPS>
experimental; illicit

> <GENERIC_NAME>
Dimenoxadol

> <SYNONYMS>
Dimenossadolo; Dimenoxadol; Dimenoxadole; Dimenoxadolum

$$$$
1462
  Mrv0541 02231215302D          

 29 31  0  0  0  0            999 V2000
    8.2451   -2.9720    0.0000 O   0  0  0  0  0  0  0  0  0  0  0  0
    1.6500   -0.5266    0.0000 O   0  5  0  0  0  0  0  0  0  0  0  0
    2.3645   -1.7641    0.0000 O   0  0  0  0  0  0  0  0  0  0  0  0
    5.2886    0.5498    0.0000 N   0  0  0  0  0  0  0  0  0  0  0  0
    6.6086    2.2883    0.0000 N   0  0  0  0  0  0  0  0  0  0  0  0
    5.2886   -0.7781    0.0000 N   0  0  0  0  0  0  0  0  0  0  0  0
    2.3645   -0.9391    0.0000 N   0  3  0  0  0  0  0  0  0  0  0  0
    5.5449    1.3340    0.0000 C   0  0  0  0  0  0  0  0  0  0  0  0
    6.3522    1.5041    0.0000 C   0  0  0  0  0  0  0  0  0  0  0  0
    5.7701   -0.1141    0.0000 C   0  0  0  0  0  0  0  0  0  0  0  0
    4.5080    0.2984    0.0000 C   0  0  0  0  0  0  0  0  0  0  0  0
    4.5080   -0.5266    0.0000 C   0  0  0  0  0  0  0  0  0  0  0  0
    6.5951   -0.1141    0.0000 C   0  0  0  0  0  0  0  0  0  0  0  0
    7.4158    2.4585    0.0000 C   0  0  0  0  0  0  0  0  0  0  0  0
    6.0575    2.9024    0.0000 C   0  0  0  0  0  0  0  0  0  0  0  0
    3.7935    0.7109    0.0000 C   0  0  0  0  0  0  0  0  0  0  0  0
    7.0076   -0.8286    0.0000 C   0  0  0  0  0  0  0  0  0  0  0  0
    3.7935   -0.9391    0.0000 C   0  0  0  0  0  0  0  0  0  0  0  0
    3.0791   -0.5266    0.0000 C   0  0  0  0  0  0  0  0  0  0  0  0
    3.0791    0.2984    0.0000 C   0  0  0  0  0  0  0  0  0  0  0  0
    7.6721    3.2427    0.0000 C   0  0  0  0  0  0  0  0  0  0  0  0
    6.3139    3.6866    0.0000 C   0  0  0  0  0  0  0  0  0  0  0  0
    7.8326   -0.8286    0.0000 C   0  0  0  0  0  0  0  0  0  0  0  0
    6.5951   -1.5431    0.0000 C   0  0  0  0  0  0  0  0  0  0  0  0
    8.2451   -1.5431    0.0000 C   0  0  0  0  0  0  0  0  0  0  0  0
    7.0076   -2.2576    0.0000 C   0  0  0  0  0  0  0  0  0  0  0  0
    7.8326   -2.2576    0.0000 C   0  0  0  0  0  0  0  0  0  0  0  0
    9.0702   -2.9720    0.0000 C   0  0  0  0  0  0  0  0  0  0  0  0
    9.4827   -3.6866    0.0000 C   0  0  0  0  0  0  0  0  0  0  0  0
  1 27  1  0  0  0  0
  1 28  1  0  0  0  0
  2  7  1  0  0  0  0
  3  7  2  0  0  0  0
  4  8  1  0  0  0  0
  4 10  1  0  0  0  0
  4 11  1  0  0  0  0
  5  9  1  0  0  0  0
  5 14  1  0  0  0  0
  5 15  1  0  0  0  0
  6 10  2  0  0  0  0
  6 12  1  0  0  0  0
  7 19  1  0  0  0  0
  8  9  1  0  0  0  0
 10 13  1  0  0  0  0
 11 12  2  0  0  0  0
 11 16  1  0  0  0  0
 12 18  1  0  0  0  0
 13 17  1  0  0  0  0
 14 21  1  0  0  0  0
 15 22  1  0  0  0  0
 16 20  2  0  0  0  0
 17 23  2  0  0  0  0
 17 24  1  0  0  0  0
 18 19  2  0  0  0  0
 19 20  1  0  0  0  0
 23 25  1  0  0  0  0
 24 26  2  0  0  0  0
 25 27  2  0  0  0  0
 26 27  1  0  0  0  0
 28 29  1  0  0  0  0
M  CHG  2   2  -1   7   1
M  END
> <DATABASE_ID>
DB01462

> <DATABASE_NAME>
drugbank

> <SMILES>
CCOC1=CC=C(CC2=NC3=C(C=CC(=C3)[N+]([O-])=O)N2CCN(CC)CC)C=C1

> <INCHI_IDENTIFIER>
InChI=1S/C22H28N4O3/c1-4-24(5-2)13-14-25-21-12-9-18(26(27)28)16-20(21)23-22(25)15-17-7-10-19(11-8-17)29-6-3/h7-12,16H,4-6,13-15H2,1-3H3

> <INCHI_KEY>
PXDBZSCGSQSKST-UHFFFAOYSA-N

> <FORMULA>
C22H28N4O3

> <MOLECULAR_WEIGHT>
396.4827

> <EXACT_MASS>
396.216140782

> <JCHEM_ACCEPTOR_COUNT>
5

> <JCHEM_AVERAGE_POLARIZABILITY>
44.61803325017047

> <JCHEM_BIOAVAILABILITY>
1

> <JCHEM_DONOR_COUNT>
0

> <JCHEM_FORMAL_CHARGE>
0

> <JCHEM_GHOSE_FILTER>
1

> <JCHEM_IUPAC>
(2-{2-[(4-ethoxyphenyl)methyl]-5-nitro-1H-1,3-benzodiazol-1-yl}ethyl)diethylamine

> <ALOGPS_LOGP>
4.99

> <JCHEM_LOGP>
4.311965925000001

> <ALOGPS_LOGS>
-4.52

> <JCHEM_MDDR_LIKE_RULE>
1

> <JCHEM_NUMBER_OF_RINGS>
3

> <JCHEM_PHYSIOLOGICAL_CHARGE>
1

> <JCHEM_PKA_STRONGEST_BASIC>
9.631274092225203

> <JCHEM_POLAR_SURFACE_AREA>
76.11000000000001

> <JCHEM_REFRACTIVITY>
115.08060000000003

> <JCHEM_ROTATABLE_BOND_COUNT>
10

> <JCHEM_RULE_OF_FIVE>
1

> <ALOGPS_SOLUBILITY>
1.21e-02 g/l

> <JCHEM_TRADITIONAL_IUPAC>
etonitazene

> <JCHEM_VEBER_RULE>
0

> <DRUGBANK_ID>
DB01462

> <DRUG_GROUPS>
experimental; illicit

> <GENERIC_NAME>
Etonitazene

$$$$
1463
  Mrv0541 02231215302D          

 16 18  0  0  1  0            999 V2000
    2.6602    0.9070    0.0000 N   0  0  0  0  0  0  0  0  0  0  0  0
    5.2984    0.8040    0.0000 C   0  0  0  0  0  0  0  0  0  0  0  0
    5.5119    1.6008    0.0000 C   0  0  0  0  0  0  0  0  0  0  0  0
    3.8696   -0.0210    0.0000 C   0  0  0  0  0  0  0  0  0  0  0  0
    3.4571    0.6934    0.0000 C   0  0  0  0  0  0  0  0  0  0  0  0
    4.9042    2.4115    0.0000 C   0  0  0  0  0  0  0  0  0  0  0  0
    6.8097    0.1780    0.0000 C   0  0  0  0  0  0  0  0  0  0  0  0
    7.0231    0.9748    0.0000 C   0  0  0  0  0  0  0  0  0  0  0  0
    3.6561   -0.8177    0.0000 C   0  0  0  0  0  0  0  0  0  0  0  0
    2.4467    1.7039    0.0000 C   0  0  0  0  0  0  0  0  0  0  0  0
    2.8592   -1.0312    0.0000 C   0  0  0  0  0  0  0  0  0  0  0  0
    4.2394   -1.4011    0.0000 C   0  0  0  0  0  0  0  0  0  0  0  0
    1.6499    1.9173    0.0000 C   0  0  0  0  0  0  0  0  0  0  0  0
    2.6457   -1.8282    0.0000 C   0  0  0  0  0  0  0  0  0  0  0  0
    4.0258   -2.1979    0.0000 C   0  0  0  0  0  0  0  0  0  0  0  0
    3.2289   -2.4115    0.0000 C   0  0  0  0  0  0  0  0  0  0  0  0
  1  5  1  0  0  0  0
  1 10  1  0  0  0  0
  2  4  1  0  0  0  0
  2  6  1  0  0  0  0
  2  7  1  0  0  0  0
  3  5  1  0  0  0  0
  3  6  1  0  0  0  0
  3  8  1  0  0  0  0
  4  5  1  0  0  0  0
  4  9  1  0  0  0  0
  7  8  1  0  0  0  0
  9 11  2  0  0  0  0
  9 12  1  0  0  0  0
 10 13  1  0  0  0  0
 11 14  1  0  0  0  0
 12 15  2  0  0  0  0
 14 16  2  0  0  0  0
 15 16  1  0  0  0  0
M  END
> <DATABASE_ID>
DB01463

> <DATABASE_NAME>
drugbank

> <SMILES>
CCNC1C2CCC(C2)C1C1=CC=CC=C1

> <INCHI_IDENTIFIER>
InChI=1S/C15H21N/c1-2-16-15-13-9-8-12(10-13)14(15)11-6-4-3-5-7-11/h3-7,12-16H,2,8-10H2,1H3

> <INCHI_KEY>
IKFBPFGUINLYQI-UHFFFAOYSA-N

> <FORMULA>
C15H21N

> <MOLECULAR_WEIGHT>
215.3339

> <EXACT_MASS>
215.167399677

> <JCHEM_ACCEPTOR_COUNT>
1

> <JCHEM_AVERAGE_POLARIZABILITY>
26.12991500811218

> <JCHEM_BIOAVAILABILITY>
1

> <JCHEM_DONOR_COUNT>
1

> <JCHEM_FORMAL_CHARGE>
0

> <JCHEM_GHOSE_FILTER>
1

> <JCHEM_IUPAC>
N-ethyl-3-phenylbicyclo[2.2.1]heptan-2-amine

> <ALOGPS_LOGP>
3.46

> <JCHEM_LOGP>
3.2056741686666665

> <ALOGPS_LOGS>
-4.86

> <JCHEM_MDDR_LIKE_RULE>
0

> <JCHEM_NUMBER_OF_RINGS>
3

> <JCHEM_PHYSIOLOGICAL_CHARGE>
1

> <JCHEM_PKA_STRONGEST_BASIC>
10.563142373934664

> <JCHEM_POLAR_SURFACE_AREA>
12.03

> <JCHEM_REFRACTIVITY>
67.63980000000001

> <JCHEM_ROTATABLE_BOND_COUNT>
3

> <JCHEM_RULE_OF_FIVE>
1

> <ALOGPS_SOLUBILITY>
2.95e-03 g/l

> <JCHEM_TRADITIONAL_IUPAC>
fencamfamine

> <JCHEM_VEBER_RULE>
1

> <DRUGBANK_ID>
DB01463

> <DRUG_GROUPS>
experimental; illicit; withdrawn

> <GENERIC_NAME>
Fencamfamin

> <SYNONYMS>
Fencamfamin; Fencamfamina; Fencamfamine; Fencamfaminum; Fencanfamina; Phencamphamine

> <INTERNATIONAL_BRANDS>
Glucoenergan; Reactivan

> <SALTS>
Fencamfamine hydrochloride

$$$$
1464
  Mrv0541 02231215302D          

 26 28  0  0  1  0            999 V2000
    2.8876    2.8878    0.0000 O   0  0  0  0  0  0  0  0  0  0  0  0
    3.4106   -1.5393    0.0000 O   0  0  0  0  0  0  0  0  0  0  0  0
    3.3636   -3.2618    0.0000 O   0  0  0  0  0  0  0  0  0  0  0  0
    3.8558    3.7003    0.0000 O   0  0  0  0  0  0  0  0  0  0  0  0
    4.1251    0.5232    0.0000 N   0  0  0  0  0  0  0  0  0  0  0  0
    4.1251    2.1733    0.0000 C   0  0  0  0  0  0  0  0  0  0  0  0
    4.8396    1.7608    0.0000 C   0  0  0  0  0  0  0  0  0  0  0  0
    3.4106    1.7608    0.0000 C   0  0  0  0  0  0  0  0  0  0  0  0
    4.8396    0.9357    0.0000 C   0  0  0  0  0  0  0  0  0  0  0  0
    3.4106    0.9357    0.0000 C   0  0  0  0  0  0  0  0  0  0  0  0
    4.7571    2.7036    0.0000 C   0  0  0  0  0  0  0  0  0  0  0  0
    4.1251   -0.3018    0.0000 C   0  0  0  0  0  0  0  0  0  0  0  0
    3.7126    2.8878    0.0000 C   0  0  0  0  0  0  0  0  0  0  0  0
    3.4106   -0.7143    0.0000 C   0  0  0  0  0  0  0  0  0  0  0  0
    4.6138    3.5161    0.0000 C   0  0  0  0  0  0  0  0  0  0  0  0
    5.5323    2.4214    0.0000 C   0  0  0  0  0  0  0  0  0  0  0  0
    2.6961   -2.7768    0.0000 C   0  0  0  0  0  0  0  0  0  0  0  0
    2.0286   -3.2618    0.0000 C   0  0  0  0  0  0  0  0  0  0  0  0
    2.6961   -1.9518    0.0000 C   0  0  0  0  0  0  0  0  0  0  0  0
    2.2836   -4.0464    0.0000 C   0  0  0  0  0  0  0  0  0  0  0  0
    3.1086   -4.0464    0.0000 C   0  0  0  0  0  0  0  0  0  0  0  0
    5.2458    4.0464    0.0000 C   0  0  0  0  0  0  0  0  0  0  0  0
    6.1644    2.9517    0.0000 C   0  0  0  0  0  0  0  0  0  0  0  0
    6.0211    3.7642    0.0000 C   0  0  0  0  0  0  0  0  0  0  0  0
    2.4751    3.6023    0.0000 C   0  0  0  0  0  0  0  0  0  0  0  0
    1.6500    3.6023    0.0000 C   0  0  0  0  0  0  0  0  0  0  0  0
  1 13  1  0  0  0  0
  1 25  1  0  0  0  0
  2 14  1  0  0  0  0
  2 19  1  0  0  0  0
  3 17  1  0  0  0  0
  3 21  1  0  0  0  0
  4 13  2  0  0  0  0
  5  9  1  0  0  0  0
  5 10  1  0  0  0  0
  5 12  1  0  0  0  0
  6  7  1  0  0  0  0
  6  8  1  0  0  0  0
  6 11  1  0  0  0  0
  6 13  1  0  0  0  0
  7  9  1  0  0  0  0
  8 10  1  0  0  0  0
 11 15  2  0  0  0  0
 11 16  1  0  0  0  0
 12 14  1  0  0  0  0
 15 22  1  0  0  0  0
 16 23  2  0  0  0  0
 17 18  1  0  0  0  0
 17 19  1  0  0  0  0
 18 20  1  0  0  0  0
 20 21  1  0  0  0  0
 22 24  2  0  0  0  0
 23 24  1  0  0  0  0
 25 26  1  0  0  0  0
M  END
> <DATABASE_ID>
DB01464

> <DATABASE_NAME>
drugbank

> <SMILES>
CCOC(=O)C1(CCN(CCOCC2CCCO2)CC1)C1=CC=CC=C1

> <INCHI_IDENTIFIER>
InChI=1S/C21H31NO4/c1-2-25-20(23)21(18-7-4-3-5-8-18)10-12-22(13-11-21)14-16-24-17-19-9-6-15-26-19/h3-5,7-8,19H,2,6,9-17H2,1H3

> <INCHI_KEY>
NNCOZXNZFLUYGG-UHFFFAOYSA-N

> <FORMULA>
C21H31NO4

> <MOLECULAR_WEIGHT>
361.4751

> <EXACT_MASS>
361.225308485

> <JCHEM_ACCEPTOR_COUNT>
4

> <JCHEM_AVERAGE_POLARIZABILITY>
41.232768207676926

> <JCHEM_BIOAVAILABILITY>
1

> <JCHEM_DONOR_COUNT>
0

> <JCHEM_FORMAL_CHARGE>
0

> <JCHEM_GHOSE_FILTER>
1

> <JCHEM_IUPAC>
ethyl 1-[2-(oxolan-2-ylmethoxy)ethyl]-4-phenylpiperidine-4-carboxylate

> <ALOGPS_LOGP>
2.86

> <JCHEM_LOGP>
2.8274139159999994

> <ALOGPS_LOGS>
-3.87

> <JCHEM_MDDR_LIKE_RULE>
1

> <JCHEM_NUMBER_OF_RINGS>
3

> <JCHEM_PHYSIOLOGICAL_CHARGE>
1

> <JCHEM_PKA_STRONGEST_BASIC>
7.984128725172105

> <JCHEM_POLAR_SURFACE_AREA>
48.00000000000001

> <JCHEM_REFRACTIVITY>
101.78190000000001

> <JCHEM_ROTATABLE_BOND_COUNT>
9

> <JCHEM_RULE_OF_FIVE>
1

> <ALOGPS_SOLUBILITY>
4.85e-02 g/l

> <JCHEM_TRADITIONAL_IUPAC>
furethidine

> <JCHEM_VEBER_RULE>
0

> <DRUGBANK_ID>
DB01464

> <DRUG_GROUPS>
experimental; illicit

> <GENERIC_NAME>
Furethidine

$$$$
1465
  Mrv0541 02231215302D          

 14 14  0  0  1  0            999 V2000
    2.3645    0.0784    0.0000 O   0  0  0  0  0  0  0  0  0  0  0  0
    5.2224   -1.5717    0.0000 O   0  0  0  0  0  0  0  0  0  0  0  0
    4.5080    2.1409    0.0000 N   0  0  0  0  0  0  0  0  0  0  0  0
    3.7935    0.9034    0.0000 C   0  0  0  0  0  0  0  0  0  0  0  0
    4.5080    1.3159    0.0000 C   0  0  0  0  0  0  0  0  0  0  0  0
    3.7935    0.0784    0.0000 C   0  0  0  0  0  0  0  0  0  0  0  0
    3.0791   -0.3341    0.0000 C   0  0  0  0  0  0  0  0  0  0  0  0
    5.2224    0.9034    0.0000 C   0  0  0  0  0  0  0  0  0  0  0  0
    4.5080   -0.3341    0.0000 C   0  0  0  0  0  0  0  0  0  0  0  0
    4.5080   -1.1592    0.0000 C   0  0  0  0  0  0  0  0  0  0  0  0
    3.0791   -1.1592    0.0000 C   0  0  0  0  0  0  0  0  0  0  0  0
    3.7935   -1.5717    0.0000 C   0  0  0  0  0  0  0  0  0  0  0  0
    1.6500   -0.3341    0.0000 C   0  0  0  0  0  0  0  0  0  0  0  0
    5.2224   -2.3967    0.0000 C   0  0  0  0  0  0  0  0  0  0  0  0
  1  7  1  0  0  0  0
  1 13  1  0  0  0  0
  2 10  1  0  0  0  0
  2 14  1  0  0  0  0
  3  5  1  0  0  0  0
  4  5  1  0  0  0  0
  4  6  1  0  0  0  0
  5  8  1  0  0  0  0
  6  7  2  0  0  0  0
  6  9  1  0  0  0  0
  7 11  1  0  0  0  0
  9 10  2  0  0  0  0
 10 12  1  0  0  0  0
 11 12  2  0  0  0  0
M  END
> <DATABASE_ID>
DB01465

> <DATABASE_NAME>
drugbank

> <SMILES>
COC1=CC(CC(C)N)=C(OC)C=C1

> <INCHI_IDENTIFIER>
InChI=1S/C11H17NO2/c1-8(12)6-9-7-10(13-2)4-5-11(9)14-3/h4-5,7-8H,6,12H2,1-3H3

> <INCHI_KEY>
LATVFYDIBMDBSY-UHFFFAOYSA-N

> <FORMULA>
C11H17NO2

> <MOLECULAR_WEIGHT>
195.2582

> <EXACT_MASS>
195.125928793

> <JCHEM_ACCEPTOR_COUNT>
3

> <JCHEM_AVERAGE_POLARIZABILITY>
22.00063508472468

> <JCHEM_BIOAVAILABILITY>
1

> <JCHEM_DONOR_COUNT>
1

> <JCHEM_FORMAL_CHARGE>
0

> <JCHEM_GHOSE_FILTER>
1

> <JCHEM_IUPAC>
1-(2,5-dimethoxyphenyl)propan-2-amine

> <ALOGPS_LOGP>
1.52

> <JCHEM_LOGP>
1.4889079503333333

> <ALOGPS_LOGS>
-2.19

> <JCHEM_MDDR_LIKE_RULE>
0

> <JCHEM_NUMBER_OF_RINGS>
1

> <JCHEM_PHYSIOLOGICAL_CHARGE>
1

> <JCHEM_PKA_STRONGEST_BASIC>
9.911428314497295

> <JCHEM_POLAR_SURFACE_AREA>
44.480000000000004

> <JCHEM_REFRACTIVITY>
56.631600000000006

> <JCHEM_ROTATABLE_BOND_COUNT>
4

> <JCHEM_RULE_OF_FIVE>
1

> <ALOGPS_SOLUBILITY>
1.25e+00 g/l

> <JCHEM_TRADITIONAL_IUPAC>
2,5-dimethoxyamphetamine

> <JCHEM_VEBER_RULE>
0

> <DRUGBANK_ID>
DB01465

> <DRUG_GROUPS>
experimental; illicit

> <GENERIC_NAME>
2,5-Dimethoxyamphetamine

> <SALTS>
2,5-dimethoxyamphetamine hydrochloride

$$$$
1466
  Mrv0541 02231215302D          

 26 30  0  0  1  0            999 V2000
    2.6868   -0.3359    0.0000 O   0  0  0  0  0  0  0  0  0  0  0  0
    2.4860   -2.4654    0.0000 O   0  0  0  0  0  0  0  0  0  0  0  0
    2.4860    1.7020    0.0000 O   0  0  0  0  0  0  0  0  0  0  0  0
    6.0951   -1.2067    0.0000 N   0  0  0  0  0  0  0  0  0  0  0  0
    3.9517   -0.7941    0.0000 C   0  0  1  0  0  0  0  0  0  0  0  0
    4.6662   -1.2067    0.0000 C   0  0  2  0  0  0  0  0  0  0  0  0
    5.3806   -0.7941    0.0000 C   0  0  1  0  0  0  0  0  0  0  0  0
    3.2372   -1.2067    0.0000 C   0  0  2  0  0  0  0  0  0  0  0  0
    4.4284   -0.1892    0.0000 C   0  0  0  0  0  0  0  0  0  0  0  0
    3.9517    0.0308    0.0000 C   0  0  0  0  0  0  0  0  0  0  0  0
    5.3806    0.0308    0.0000 C   0  0  0  0  0  0  0  0  0  0  0  0
    5.6017   -0.1892    0.0000 C   0  0  0  0  0  0  0  0  0  0  0  0
    4.6662    0.4433    0.0000 C   0  0  0  0  0  0  0  0  0  0  0  0
    3.2372   -2.0317    0.0000 C   0  0  2  0  0  0  0  0  0  0  0  0
    4.6662   -2.0317    0.0000 C   0  0  0  0  0  0  0  0  0  0  0  0
    3.2372    0.4433    0.0000 C   0  0  0  0  0  0  0  0  0  0  0  0
    3.9517   -2.4441    0.0000 C   0  0  0  0  0  0  0  0  0  0  0  0
    4.6662    1.2683    0.0000 C   0  0  0  0  0  0  0  0  0  0  0  0
    6.6859   -1.8417    0.0000 C   0  0  0  0  0  0  0  0  0  0  0  0
    3.2372    1.2683    0.0000 C   0  0  0  0  0  0  0  0  0  0  0  0
    3.9517    1.6808    0.0000 C   0  0  0  0  0  0  0  0  0  0  0  0
    2.4860    2.5694    0.0000 C   0  0  0  0  0  0  0  0  0  0  0  0
    1.7348    3.0032    0.0000 C   0  0  0  0  0  0  0  0  0  0  0  0
    5.1122   -1.7382    0.0000 H   0  0  0  0  0  0  0  0  0  0  0  0
    5.6185   -1.4461    0.0000 H   0  0  0  0  0  0  0  0  0  0  0  0
    2.5707   -1.3997    0.0000 H   0  0  0  0  0  0  0  0  0  0  0  0
  1  8  1  0  0  0  0
  1 16  1  0  0  0  0
 14  2  1  6  0  0  0
  3 20  1  0  0  0  0
  3 22  1  0  0  0  0
  4  7  1  0  0  0  0
  4 12  1  0  0  0  0
  4 19  1  0  0  0  0
  5  6  1  0  0  0  0
  5  8  1  0  0  0  0
  5  9  1  1  0  0  0
  5 10  1  0  0  0  0
  6  7  1  0  0  0  0
  6 15  1  0  0  0  0
  6 24  1  1  0  0  0
  7 11  1  0  0  0  0
  7 25  1  6  0  0  0
  8 14  1  0  0  0  0
  8 26  1  1  0  0  0
  9 12  1  0  0  0  0
 10 13  2  0  0  0  0
 10 16  1  0  0  0  0
 11 13  1  0  0  0  0
 13 18  1  0  0  0  0
 14 17  1  0  0  0  0
 15 17  2  0  0  0  0
 16 20  2  0  0  0  0
 18 21  2  0  0  0  0
 20 21  1  0  0  0  0
 22 23  1  0  0  0  0
M  END
> <DATABASE_ID>
DB01466

> <DATABASE_NAME>
drugbank

> <SMILES>
[H][C@@]12OC3=C(OCC)C=CC4=C3[C@@]11CCN(C)[C@]([H])(C4)[C@]1([H])C=C[C@@H]2O

> <INCHI_IDENTIFIER>
InChI=1S/C19H23NO3/c1-3-22-15-7-4-11-10-13-12-5-6-14(21)18-19(12,8-9-20(13)2)16(11)17(15)23-18/h4-7,12-14,18,21H,3,8-10H2,1-2H3/t12-,13+,14-,18-,19-/m0/s1

> <INCHI_KEY>
OGDVEMNWJVYAJL-LEPYJNQMSA-N

> <FORMULA>
C19H23NO3

> <MOLECULAR_WEIGHT>
313.3908

> <EXACT_MASS>
313.167793607

> <JCHEM_ACCEPTOR_COUNT>
4

> <JCHEM_AVERAGE_POLARIZABILITY>
34.16514215038998

> <JCHEM_BIOAVAILABILITY>
1

> <JCHEM_DONOR_COUNT>
1

> <JCHEM_FORMAL_CHARGE>
0

> <JCHEM_GHOSE_FILTER>
1

> <JCHEM_IUPAC>
(1S,5R,13R,14S,17R)-10-ethoxy-4-methyl-12-oxa-4-azapentacyclo[9.6.1.0¹,¹³.0⁵,¹⁷.0⁷,¹⁸]octadeca-7(18),8,10,15-tetraen-14-ol

> <ALOGPS_LOGP>
1.72

> <JCHEM_LOGP>
1.699759237666667

> <ALOGPS_LOGS>
-2.57

> <JCHEM_MDDR_LIKE_RULE>
0

> <JCHEM_NUMBER_OF_RINGS>
5

> <JCHEM_PHYSIOLOGICAL_CHARGE>
1

> <JCHEM_PKA_STRONGEST_ACIDIC>
13.78273924856665

> <JCHEM_PKA_STRONGEST_BASIC>
9.19110483902594

> <JCHEM_POLAR_SURFACE_AREA>
41.93

> <JCHEM_REFRACTIVITY>
89.35329999999999

> <JCHEM_ROTATABLE_BOND_COUNT>
2

> <JCHEM_RULE_OF_FIVE>
1

> <ALOGPS_SOLUBILITY>
8.35e-01 g/l

> <JCHEM_TRADITIONAL_IUPAC>
ethylmorphine

> <JCHEM_VEBER_RULE>
0

> <DRUGBANK_ID>
DB01466

> <DRUG_GROUPS>
experimental; illicit

> <GENERIC_NAME>
Ethylmorphine

> <SYNONYMS>
3-ethoxymorphine; 3-O-Ethylmorphine; Dionine; Ethylmorphine

> <INTERNATIONAL_BRANDS>
Codethyline; Dionina; Lepheton

> <SALTS>
Ethylmorphine hydrochloride

$$$$
1467
  Mrv0541 02231215302D          

 16 16  0  0  1  0            999 V2000
    2.3645    0.2846    0.0000 O   0  0  0  0  0  0  0  0  0  0  0  0
    5.2224   -1.3654    0.0000 O   0  0  0  0  0  0  0  0  0  0  0  0
    4.5080    2.3472    0.0000 N   0  0  0  0  0  0  0  0  0  0  0  0
    3.7935    1.1096    0.0000 C   0  0  0  0  0  0  0  0  0  0  0  0
    3.7935    0.2846    0.0000 C   0  0  0  0  0  0  0  0  0  0  0  0
    4.5080    1.5222    0.0000 C   0  0  0  0  0  0  0  0  0  0  0  0
    3.7935   -1.3654    0.0000 C   0  0  0  0  0  0  0  0  0  0  0  0
    3.0791   -0.1279    0.0000 C   0  0  0  0  0  0  0  0  0  0  0  0
    4.5080   -0.1279    0.0000 C   0  0  0  0  0  0  0  0  0  0  0  0
    4.5080   -0.9529    0.0000 C   0  0  0  0  0  0  0  0  0  0  0  0
    3.0791   -0.9529    0.0000 C   0  0  0  0  0  0  0  0  0  0  0  0
    3.7935   -2.1904    0.0000 C   0  0  0  0  0  0  0  0  0  0  0  0
    5.2224    1.1096    0.0000 C   0  0  0  0  0  0  0  0  0  0  0  0
    3.0791   -2.6029    0.0000 C   0  0  0  0  0  0  0  0  0  0  0  0
    1.6500   -0.1279    0.0000 C   0  0  0  0  0  0  0  0  0  0  0  0
    5.9370   -0.9529    0.0000 C   0  0  0  0  0  0  0  0  0  0  0  0
  1  8  1  0  0  0  0
  1 15  1  0  0  0  0
  2 10  1  0  0  0  0
  2 16  1  0  0  0  0
  3  6  1  0  0  0  0
  4  5  1  0  0  0  0
  4  6  1  0  0  0  0
  5  8  2  0  0  0  0
  5  9  1  0  0  0  0
  6 13  1  0  0  0  0
  7 10  1  0  0  0  0
  7 11  2  0  0  0  0
  7 12  1  0  0  0  0
  8 11  1  0  0  0  0
  9 10  2  0  0  0  0
 12 14  1  0  0  0  0
M  END
> <DATABASE_ID>
DB01467

> <DATABASE_NAME>
drugbank

> <SMILES>
CCC1=CC(OC)=C(CC(C)N)C=C1OC

> <INCHI_IDENTIFIER>
InChI=1S/C13H21NO2/c1-5-10-7-13(16-4)11(6-9(2)14)8-12(10)15-3/h7-9H,5-6,14H2,1-4H3

> <INCHI_KEY>
HXJKWPGVENNMCC-UHFFFAOYSA-N

> <FORMULA>
C13H21NO2

> <MOLECULAR_WEIGHT>
223.3113

> <EXACT_MASS>
223.157228921

> <JCHEM_ACCEPTOR_COUNT>
3

> <JCHEM_AVERAGE_POLARIZABILITY>
26.06945753116118

> <JCHEM_BIOAVAILABILITY>
1

> <JCHEM_DONOR_COUNT>
1

> <JCHEM_FORMAL_CHARGE>
0

> <JCHEM_GHOSE_FILTER>
1

> <JCHEM_IUPAC>
1-(4-ethyl-2,5-dimethoxyphenyl)propan-2-amine

> <ALOGPS_LOGP>
2.71

> <JCHEM_LOGP>
2.446898004666666

> <ALOGPS_LOGS>
-2.73

> <JCHEM_MDDR_LIKE_RULE>
0

> <JCHEM_NUMBER_OF_RINGS>
1

> <JCHEM_PHYSIOLOGICAL_CHARGE>
1

> <JCHEM_PKA_STRONGEST_BASIC>
9.93499400616065

> <JCHEM_POLAR_SURFACE_AREA>
44.480000000000004

> <JCHEM_REFRACTIVITY>
66.2738

> <JCHEM_ROTATABLE_BOND_COUNT>
5

> <JCHEM_RULE_OF_FIVE>
1

> <ALOGPS_SOLUBILITY>
4.13e-01 g/l

> <JCHEM_TRADITIONAL_IUPAC>
1-(4-ethyl-2,5-dimethoxyphenyl)propan-2-amine

> <JCHEM_VEBER_RULE>
0

> <DRUGBANK_ID>
DB01467

> <DRUG_GROUPS>
experimental; illicit

> <GENERIC_NAME>
2,5-Dimethoxy-4-ethylamphetamine

$$$$
1468
  Mrv0541 02231215302D          

 18 19  0  0  1  0            999 V2000
    5.2616   -0.3195    0.0000 S   0  0  0  0  0  0  0  0  0  0  0  0
    3.1261   -1.7065    0.0000 S   0  0  0  0  0  0  0  0  0  0  0  0
    2.3645    1.2535    0.0000 N   0  0  0  0  0  0  0  0  0  0  0  0
    3.0791    0.8410    0.0000 C   0  0  0  0  0  0  0  0  0  0  0  0
    3.0791    0.0160    0.0000 C   0  0  0  0  0  0  0  0  0  0  0  0
    2.3645    2.0786    0.0000 C   0  0  0  0  0  0  0  0  0  0  0  0
    3.7935    1.2535    0.0000 C   0  0  0  0  0  0  0  0  0  0  0  0
    3.7935   -0.3965    0.0000 C   0  0  0  0  0  0  0  0  0  0  0  0
    1.6500    0.8410    0.0000 C   0  0  0  0  0  0  0  0  0  0  0  0
    1.6500    2.4911    0.0000 C   0  0  0  0  0  0  0  0  0  0  0  0
    4.5080    0.0160    0.0000 C   0  0  0  0  0  0  0  0  0  0  0  0
    3.7935   -1.2215    0.0000 C   0  0  0  0  0  0  0  0  0  0  0  0
    4.5942    0.8365    0.0000 C   0  0  0  0  0  0  0  0  0  0  0  0
    4.4610   -1.7065    0.0000 C   0  0  0  0  0  0  0  0  0  0  0  0
    5.4012    1.0081    0.0000 C   0  0  0  0  0  0  0  0  0  0  0  0
    4.2060   -2.4911    0.0000 C   0  0  0  0  0  0  0  0  0  0  0  0
    5.8137    0.2935    0.0000 C   0  0  0  0  0  0  0  0  0  0  0  0
    3.3810   -2.4911    0.0000 C   0  0  0  0  0  0  0  0  0  0  0  0
  1 11  1  0  0  0  0
  1 17  1  0  0  0  0
  2 12  1  0  0  0  0
  2 18  1  0  0  0  0
  3  4  1  0  0  0  0
  3  6  1  0  0  0  0
  3  9  1  0  0  0  0
  4  5  1  0  0  0  0
  4  7  1  0  0  0  0
  5  8  2  0  0  0  0
  6 10  1  0  0  0  0
  8 11  1  0  0  0  0
  8 12  1  0  0  0  0
 11 13  2  0  0  0  0
 12 14  2  0  0  0  0
 13 15  1  0  0  0  0
 14 16  1  0  0  0  0
 15 17  2  0  0  0  0
 16 18  2  0  0  0  0
M  END
> <DATABASE_ID>
DB01468

> <DATABASE_NAME>
drugbank

> <SMILES>
CCN(C)C(C)C=C(C1=CC=CS1)C1=CC=CS1

> <INCHI_IDENTIFIER>
InChI=1S/C15H19NS2/c1-4-16(3)12(2)11-13(14-7-5-9-17-14)15-8-6-10-18-15/h5-12H,4H2,1-3H3

> <INCHI_KEY>
MORSAEFGQPDBKM-UHFFFAOYSA-N

> <FORMULA>
C15H19NS2

> <MOLECULAR_WEIGHT>
277.448

> <EXACT_MASS>
277.095890993

> <JCHEM_ACCEPTOR_COUNT>
1

> <JCHEM_AVERAGE_POLARIZABILITY>
30.924141911694438

> <JCHEM_BIOAVAILABILITY>
1

> <JCHEM_DONOR_COUNT>
0

> <JCHEM_FORMAL_CHARGE>
0

> <JCHEM_GHOSE_FILTER>
1

> <JCHEM_IUPAC>
[4,4-bis(thiophen-2-yl)but-3-en-2-yl](ethyl)methylamine

> <ALOGPS_LOGP>
4.61

> <JCHEM_LOGP>
4.556902559333333

> <ALOGPS_LOGS>
-3.61

> <JCHEM_MDDR_LIKE_RULE>
0

> <JCHEM_NUMBER_OF_RINGS>
2

> <JCHEM_PHYSIOLOGICAL_CHARGE>
1

> <JCHEM_PKA_STRONGEST_BASIC>
8.942716438603346

> <JCHEM_POLAR_SURFACE_AREA>
3.24

> <JCHEM_REFRACTIVITY>
91.41920000000002

> <JCHEM_ROTATABLE_BOND_COUNT>
5

> <JCHEM_RULE_OF_FIVE>
1

> <ALOGPS_SOLUBILITY>
6.76e-02 g/l

> <JCHEM_TRADITIONAL_IUPAC>
ethylmethylthiambutene

> <JCHEM_VEBER_RULE>
1

> <DRUGBANK_ID>
DB01468

> <DRUG_GROUPS>
experimental; illicit

> <GENERIC_NAME>
Ethylmethylthiambutene

$$$$

  Mrv1572004081619282D          

 36 41  0  0  0  0            999 V2000
    3.9176   -0.8605    0.0000 C   0  0  0  0  0  0  0  0  0  0  0  0
   -3.4814   -2.7495    0.0000 C   0  0  0  0  0  0  0  0  0  0  0  0
    1.5133   -1.5549    0.0000 C   0  0  0  0  0  0  0  0  0  0  0  0
   -1.3666    2.7495    0.0000 C   0  0  0  0  0  0  0  0  0  0  0  0
   -0.3619   -2.3118    0.0000 C   0  0  0  0  0  0  0  0  0  0  0  0
    3.1668   -0.5779    0.0000 C   0  0  0  0  0  0  0  0  0  0  0  0
   -2.7957    0.4429    0.0000 C   0  0  0  0  0  0  0  0  0  0  0  0
   -2.9835   -0.3584    0.0000 C   0  0  0  0  0  0  0  0  0  0  0  0
    2.5467   -1.0868    0.0000 C   0  0  0  0  0  0  0  0  0  0  0  0
    0.1501    0.1720    0.0000 C   0  0  0  0  0  0  0  0  0  0  0  0
    0.4851   -0.4437    0.0000 C   0  0  0  0  0  0  0  0  0  0  0  0
   -0.2073    1.2519    0.0000 C   0  0  0  0  0  0  0  0  0  0  0  0
   -0.0128    2.0632    0.0000 C   0  0  0  0  0  0  0  0  0  0  0  0
   -1.5633    1.3776    0.0000 C   0  0  0  0  0  0  0  0  0  0  0  0
    0.8965    0.3657    0.0000 C   0  0  0  0  0  0  0  0  0  0  0  0
   -3.3186   -1.9639    0.0000 C   0  0  0  0  0  0  0  0  0  0  0  0
   -1.9941    0.6717    0.0000 C   0  0  0  0  0  0  0  0  0  0  0  0
   -2.3943   -0.9266    0.0000 C   0  0  0  0  0  0  0  0  0  0  0  0
    1.0452   -0.5216    0.0000 C   0  0  2  0  0  0  0  0  0  0  0  0
   -0.7300    1.3362    0.0000 C   0  0  2  0  0  0  0  0  0  0  0  0
   -1.3407    0.1548    0.0000 C   0  0  0  0  0  0  0  0  0  0  0  0
   -1.6249   -0.6382    0.0000 C   0  0  0  0  0  0  0  0  0  0  0  0
   -0.3695   -0.5432    0.0000 C   0  0  2  0  0  0  0  0  0  0  0  0
    1.7959   -0.8041    0.0000 C   0  0  1  0  0  0  0  0  0  0  0  0
    0.1473    0.8799    0.0000 C   0  0  1  0  0  0  0  0  0  0  0  0
   -0.5125    0.3739    0.0000 C   0  0  2  0  0  0  0  0  0  0  0  0
    0.3289   -1.1064    0.0000 C   0  0  1  0  0  0  0  0  0  0  0  0
   -0.8105    2.1713    0.0000 N   0  0  0  0  0  0  0  0  0  0  0  0
   -3.9176   -1.4303    0.0000 O   0  0  0  0  0  0  0  0  0  0  0  0
    2.0785   -0.0534    0.0000 O   0  0  0  0  0  0  0  0  0  0  0  0
    0.3315   -1.9086    0.0000 O   0  0  0  0  0  0  0  0  0  0  0  0
   -2.5570   -1.7121    0.0000 O   0  0  0  0  0  0  0  0  0  0  0  0
   -0.9586   -1.1116    0.0000 O   0  0  0  0  0  0  0  0  0  0  0  0
    1.1749   -1.3132    0.0000 H   0  0  0  0  0  0  0  0  0  0  0  0
   -0.9398    0.5619    0.0000 H   0  0  0  0  0  0  0  0  0  0  0  0
   -1.1299   -0.2875    0.0000 H   0  0  0  0  0  0  0  0  0  0  0  0
  6  1  1  0  0  0  0
  8  7  2  0  0  0  0
  9  6  1  0  0  0  0
 11 10  2  0  0  0  0
 13 12  1  0  0  0  0
 16  2  1  0  0  0  0
 17  7  1  0  0  0  0
 17 14  1  0  0  0  0
 18  8  1  0  0  0  0
 19 15  1  0  0  0  0
 20 14  1  0  0  0  0
 21 17  2  0  0  0  0
 22 18  2  0  0  0  0
 22 21  1  0  0  0  0
 24  3  1  1  0  0  0
 24  9  1  0  0  0  0
 19 24  1  6  0  0  0
 25 10  1  0  0  0  0
 25 15  1  1  0  0  0
 25 20  1  0  0  0  0
 26 12  1  0  0  0  0
 26 21  1  6  0  0  0
 26 23  1  0  0  0  0
 26 25  1  0  0  0  0
 27 11  1  0  0  0  0
 27 19  1  0  0  0  0
 27 23  1  0  0  0  0
 28  4  1  0  0  0  0
 28 13  1  0  0  0  0
 28 20  1  0  0  0  0
 29 16  2  0  0  0  0
 24 30  1  1  0  0  0
 31  5  1  0  0  0  0
 27 31  1  6  0  0  0
 32 16  1  0  0  0  0
 32 18  1  0  0  0  0
 33 22  1  0  0  0  0
 33 23  1  0  0  0  0
 19 34  1  1  0  0  0
 20 35  1  6  0  0  0
 23 36  1  1  0  0  0
M  END
> <DATABASE_ID>
DB01469

> <DATABASE_NAME>
drugbank

> <SMILES>
[H][C@@]12OC3=C(OC(C)=O)C=CC4=C3[C@@]11CCN(C)[C@]([H])(C4)[C@@]11C[C@]([H])([C@](C)(O)CCC)[C@]2(OC)C=C1

> <INCHI_IDENTIFIER>
InChI=1S/C27H35NO5/c1-6-9-24(3,30)19-15-25-10-11-27(19,31-5)23-26(25)12-13-28(4)20(25)14-17-7-8-18(32-16(2)29)22(33-23)21(17)26/h7-8,10-11,19-20,23,30H,6,9,12-15H2,1-5H3/t19-,20-,23-,24-,25-,26+,27-/m1/s1

> <INCHI_KEY>
LFYBMMHFJIAKFE-PMEKXCSPSA-N

> <FORMULA>
C27H35NO5

> <MOLECULAR_WEIGHT>
453.579

> <EXACT_MASS>
453.251523231

> <JCHEM_ACCEPTOR_COUNT>
5

> <JCHEM_ATOM_COUNT>
68

> <JCHEM_AVERAGE_POLARIZABILITY>
49.84173060152807

> <JCHEM_BIOAVAILABILITY>
1

> <JCHEM_DONOR_COUNT>
1

> <JCHEM_FORMAL_CHARGE>
0

> <JCHEM_GHOSE_FILTER>
1

> <JCHEM_IUPAC>
(1R,2R,6S,14R,15R,19R)-19-[(2R)-2-hydroxypentan-2-yl]-15-methoxy-3-methyl-13-oxa-3-azahexacyclo[13.2.2.1²,⁸.0¹,⁶.0⁶,¹⁴.0⁷,¹²]icosa-7,9,11,16-tetraen-11-yl acetate

> <ALOGPS_LOGP>
3.59

> <JCHEM_LOGP>
2.6579090620000008

> <ALOGPS_LOGS>
-4.36

> <JCHEM_MDDR_LIKE_RULE>
1

> <JCHEM_NUMBER_OF_RINGS>
6

> <JCHEM_PHYSIOLOGICAL_CHARGE>
1

> <JCHEM_PKA_STRONGEST_ACIDIC>
14.683273029209158

> <JCHEM_PKA_STRONGEST_BASIC>
8.970648930170505

> <JCHEM_POLAR_SURFACE_AREA>
68.23000000000002

> <JCHEM_REFRACTIVITY>
125.66569999999996

> <JCHEM_ROTATABLE_BOND_COUNT>
6

> <JCHEM_RULE_OF_FIVE>
1

> <ALOGPS_SOLUBILITY>
1.97e-02 g/l

> <JCHEM_TRADITIONAL_IUPAC>
acetorphine

> <JCHEM_VEBER_RULE>
0

> <DRUGBANK_ID>
DB01469

> <DRUG_GROUPS>
experimental; illicit

> <GENERIC_NAME>
Acetorphine

> <SYNONYMS>
7alpha-etorphine 3-acetate; Acetorfina; Acetylpropylorvinol

$$$$
1470
  Mrv0541 02231215302D          

 25 27  0  0  1  0            999 V2000
    1.6971   -2.9440    0.0000 S   0  0  0  0  0  0  0  0  0  0  0  0
    1.6500    2.0786    0.0000 O   0  0  0  0  0  0  0  0  0  0  0  0
    3.0791   -0.3965    0.0000 N   0  0  0  0  0  0  0  0  0  0  0  0
    3.0791    2.0786    0.0000 N   0  0  0  0  0  0  0  0  0  0  0  0
    3.0791    1.2535    0.0000 C   0  0  0  0  0  0  0  0  0  0  0  0
    2.3645    0.8410    0.0000 C   0  0  0  0  0  0  0  0  0  0  0  0
    3.7935    0.8410    0.0000 C   0  0  0  0  0  0  0  0  0  0  0  0
    2.3645    0.0160    0.0000 C   0  0  0  0  0  0  0  0  0  0  0  0
    3.7935    0.0160    0.0000 C   0  0  0  0  0  0  0  0  0  0  0  0
    3.0791   -1.2215    0.0000 C   0  0  0  0  0  0  0  0  0  0  0  0
    2.3645   -1.6340    0.0000 C   0  0  0  0  0  0  0  0  0  0  0  0
    3.7935   -1.6340    0.0000 C   0  0  0  0  0  0  0  0  0  0  0  0
    3.7935    2.4911    0.0000 C   0  0  0  0  0  0  0  0  0  0  0  0
    2.3645    2.4911    0.0000 C   0  0  0  0  0  0  0  0  0  0  0  0
    2.3645   -2.4590    0.0000 C   0  0  0  0  0  0  0  0  0  0  0  0
    2.3645    3.3161    0.0000 C   0  0  0  0  0  0  0  0  0  0  0  0
    3.7935    3.3161    0.0000 C   0  0  0  0  0  0  0  0  0  0  0  0
    4.5080    2.0786    0.0000 C   0  0  0  0  0  0  0  0  0  0  0  0
    3.0319   -2.9440    0.0000 C   0  0  0  0  0  0  0  0  0  0  0  0
    1.6500    3.7286    0.0000 C   0  0  0  0  0  0  0  0  0  0  0  0
    4.5080    3.7286    0.0000 C   0  0  0  0  0  0  0  0  0  0  0  0
    5.2224    2.4911    0.0000 C   0  0  0  0  0  0  0  0  0  0  0  0
    2.7770   -3.7286    0.0000 C   0  0  0  0  0  0  0  0  0  0  0  0
    1.9520   -3.7286    0.0000 C   0  0  0  0  0  0  0  0  0  0  0  0
    5.2224    3.3161    0.0000 C   0  0  0  0  0  0  0  0  0  0  0  0
  1 15  1  0  0  0  0
  1 24  1  0  0  0  0
  2 14  2  0  0  0  0
  3  8  1  0  0  0  0
  3  9  1  0  0  0  0
  3 10  1  0  0  0  0
  4  5  1  0  0  0  0
  4 13  1  0  0  0  0
  4 14  1  0  0  0  0
  5  6  1  0  0  0  0
  5  7  1  0  0  0  0
  6  8  1  0  0  0  0
  7  9  1  0  0  0  0
 10 11  1  0  0  0  0
 10 12  1  0  0  0  0
 11 15  1  0  0  0  0
 13 17  2  0  0  0  0
 13 18  1  0  0  0  0
 14 16  1  0  0  0  0
 15 19  2  0  0  0  0
 16 20  1  0  0  0  0
 17 21  1  0  0  0  0
 18 22  2  0  0  0  0
 19 23  1  0  0  0  0
 21 25  2  0  0  0  0
 22 25  1  0  0  0  0
 23 24  2  0  0  0  0
M  END
> <DATABASE_ID>
DB01470

> <DATABASE_NAME>
drugbank

> <SMILES>
CCC(=O)N(C1CCN(CC1)C(C)CC1=CC=CS1)C1=CC=CC=C1

> <INCHI_IDENTIFIER>
InChI=1S/C21H28N2OS/c1-3-21(24)23(18-8-5-4-6-9-18)19-11-13-22(14-12-19)17(2)16-20-10-7-15-25-20/h4-10,15,17,19H,3,11-14,16H2,1-2H3

> <INCHI_KEY>
YPOXDUYRRSUFFG-UHFFFAOYSA-N

> <FORMULA>
C21H28N2OS

> <MOLECULAR_WEIGHT>
356.525

> <EXACT_MASS>
356.192234218

> <JCHEM_ACCEPTOR_COUNT>
2

> <JCHEM_AVERAGE_POLARIZABILITY>
41.260117450115764

> <JCHEM_BIOAVAILABILITY>
1

> <JCHEM_DONOR_COUNT>
0

> <JCHEM_FORMAL_CHARGE>
0

> <JCHEM_GHOSE_FILTER>
1

> <JCHEM_IUPAC>
N-phenyl-N-{1-[1-(thiophen-2-yl)propan-2-yl]piperidin-4-yl}propanamide

> <ALOGPS_LOGP>
4.48

> <JCHEM_LOGP>
4.144954946

> <ALOGPS_LOGS>
-4.28

> <JCHEM_MDDR_LIKE_RULE>
1

> <JCHEM_NUMBER_OF_RINGS>
3

> <JCHEM_PHYSIOLOGICAL_CHARGE>
1

> <JCHEM_PKA_STRONGEST_BASIC>
8.983668666132255

> <JCHEM_POLAR_SURFACE_AREA>
23.550000000000004

> <JCHEM_REFRACTIVITY>
104.90160000000003

> <JCHEM_ROTATABLE_BOND_COUNT>
6

> <JCHEM_RULE_OF_FIVE>
1

> <ALOGPS_SOLUBILITY>
1.86e-02 g/l

> <JCHEM_TRADITIONAL_IUPAC>
α-methylthiofentanyl

> <JCHEM_VEBER_RULE>
1

> <DRUGBANK_ID>
DB01470

> <DRUG_GROUPS>
illicit

> <GENERIC_NAME>
alpha-methylthiofentanyl

> <SYNONYMS>
alpha-methylthiofentanyl; α-methylthiofentanyl

$$$$
1471
  Mrv0541 02231215302D          

 26 29  0  0  1  0            999 V2000
    7.5474    1.4947    0.0000 O   0  0  0  0  0  0  0  0  0  0  0  0
    1.6498   -1.7582    0.0000 O   0  0  0  0  0  0  0  0  0  0  0  0
    6.0987   -0.0653    0.0000 C   0  0  2  0  0  0  0  0  0  0  0  0
    6.0987    0.7597    0.0000 C   0  0  1  0  0  0  0  0  0  0  0  0
    5.3843   -0.4777    0.0000 C   0  0  1  0  0  0  0  0  0  0  0  0
    4.6698   -0.0653    0.0000 C   0  0  1  0  0  0  0  0  0  0  0  0
    6.8793    1.0111    0.0000 C   0  0  2  0  0  0  0  0  0  0  0  0
    3.9192   -0.4833    0.0000 C   0  0  2  0  0  0  0  0  0  0  0  0
    5.3843    1.1722    0.0000 C   0  0  0  0  0  0  0  0  0  0  0  0
    4.6698    0.7597    0.0000 C   0  0  0  0  0  0  0  0  0  0  0  0
    6.8793   -0.3166    0.0000 C   0  0  0  0  0  0  0  0  0  0  0  0
    5.3975   -1.3368    0.0000 C   0  0  1  0  0  0  0  0  0  0  0  0
    7.3606    0.3472    0.0000 C   0  0  0  0  0  0  0  0  0  0  0  0
    4.6567   -1.7722    0.0000 C   0  0  0  0  0  0  0  0  0  0  0  0
    3.9126   -1.3425    0.0000 C   0  0  0  0  0  0  0  0  0  0  0  0
    6.0987    1.5846    0.0000 C   0  0  0  0  0  0  0  0  0  0  0  0
    3.1546   -0.0180    0.0000 C   0  0  0  0  0  0  0  0  0  0  0  0
    6.6257    1.7960    0.0000 C   0  0  0  0  0  0  0  0  0  0  0  0
    3.9255    0.3416    0.0000 C   0  0  0  0  0  0  0  0  0  0  0  0
    6.1167   -1.7410    0.0000 C   0  0  0  0  0  0  0  0  0  0  0  0
    2.3727   -0.4535    0.0000 C   0  0  0  0  0  0  0  0  0  0  0  0
    3.1409   -1.7960    0.0000 C   0  0  0  0  0  0  0  0  0  0  0  0
    2.3658   -1.3485    0.0000 C   0  0  0  0  0  0  0  0  0  0  0  0
    6.1685   -0.7215    0.0000 H   0  0  0  0  0  0  0  0  0  0  0  0
    5.9583   -0.8032    0.0000 H   0  0  0  0  0  0  0  0  0  0  0  0
    5.2415    0.2647    0.0000 H   0  0  0  0  0  0  0  0  0  0  0  0
  7  1  1  1  0  0  0
  2 23  2  0  0  0  0
  3  4  1  0  0  0  0
  3  5  1  0  0  0  0
  3 11  1  0  0  0  0
  3 24  1  6  0  0  0
  4  7  1  0  0  0  0
  4  9  1  0  0  0  0
  4 16  1  1  0  0  0
  5  6  1  0  0  0  0
  5 12  1  0  0  0  0
  5 25  1  1  0  0  0
  6  8  1  0  0  0  0
  6 10  1  0  0  0  0
  6 26  1  6  0  0  0
  7 13  1  0  0  0  0
  7 18  1  0  0  0  0
  8 15  1  0  0  0  0
  8 17  1  0  0  0  0
  8 19  1  1  0  0  0
  9 10  1  0  0  0  0
 11 13  1  0  0  0  0
 12 14  1  0  0  0  0
 12 20  1  6  0  0  0
 14 15  1  0  0  0  0
 15 22  2  0  0  0  0
 17 21  1  0  0  0  0
 21 23  1  0  0  0  0
 22 23  1  0  0  0  0
M  END
> <DATABASE_ID>
DB01471

> <DATABASE_NAME>
drugbank

> <SMILES>
[H][C@@]12CC[C@](C)(O)[C@@]1(C)CC[C@@]1([H])[C@@]2([H])[C@H](C)CC2=CC(=O)CC[C@]12C

> <INCHI_IDENTIFIER>
InChI=1S/C21H32O2/c1-13-11-14-12-15(22)5-8-19(14,2)16-6-9-20(3)17(18(13)16)7-10-21(20,4)23/h12-13,16-18,23H,5-11H2,1-4H3/t13-,16+,17+,18-,19+,20+,21+/m1/s1

> <INCHI_KEY>
IVFYLRMMHVYGJH-VLOLGRDOSA-N

> <FORMULA>
C21H32O2

> <MOLECULAR_WEIGHT>
316.4776

> <EXACT_MASS>
316.240230268

> <JCHEM_ACCEPTOR_COUNT>
2

> <JCHEM_AVERAGE_POLARIZABILITY>
37.53930412277785

> <JCHEM_BIOAVAILABILITY>
1

> <JCHEM_DONOR_COUNT>
1

> <JCHEM_FORMAL_CHARGE>
0

> <JCHEM_GHOSE_FILTER>
1

> <JCHEM_IUPAC>
(1S,2R,9R,10R,11S,14S,15S)-14-hydroxy-2,9,14,15-tetramethyltetracyclo[8.7.0.0²,⁷.0¹¹,¹⁵]heptadec-6-en-5-one

> <ALOGPS_LOGP>
3.55

> <JCHEM_LOGP>
3.933019062333334

> <ALOGPS_LOGS>
-4.45

> <JCHEM_MDDR_LIKE_RULE>
0

> <JCHEM_NUMBER_OF_RINGS>
4

> <JCHEM_PHYSIOLOGICAL_CHARGE>
0

> <JCHEM_PKA_STRONGEST_ACIDIC>
19.564040768992434

> <JCHEM_PKA_STRONGEST_BASIC>
-0.5280731514980953

> <JCHEM_POLAR_SURFACE_AREA>
37.3

> <JCHEM_REFRACTIVITY>
93.61659999999999

> <JCHEM_ROTATABLE_BOND_COUNT>
0

> <JCHEM_RULE_OF_FIVE>
1

> <ALOGPS_SOLUBILITY>
1.12e-02 g/l

> <JCHEM_TRADITIONAL_IUPAC>
bolasterone

> <JCHEM_VEBER_RULE>
1

> <DRUGBANK_ID>
DB01471

> <DRUG_GROUPS>
experimental; illicit

> <GENERIC_NAME>
Bolasterone

$$$$
1472
  Mrv0541 02231215302D          

 12 12  0  0  1  0            999 V2000
    2.3645   -2.1904    0.0000 O   0  0  0  0  0  0  0  0  0  0  0  0
    3.0791    2.3472    0.0000 N   0  0  0  0  0  0  0  0  0  0  0  0
    2.3645    1.1096    0.0000 C   0  0  0  0  0  0  0  0  0  0  0  0
    3.0791    1.5222    0.0000 C   0  0  0  0  0  0  0  0  0  0  0  0
    2.3645    0.2846    0.0000 C   0  0  0  0  0  0  0  0  0  0  0  0
    3.7935    1.1096    0.0000 C   0  0  0  0  0  0  0  0  0  0  0  0
    3.0791   -0.1279    0.0000 C   0  0  0  0  0  0  0  0  0  0  0  0
    1.6500   -0.1279    0.0000 C   0  0  0  0  0  0  0  0  0  0  0  0
    3.0791   -0.9529    0.0000 C   0  0  0  0  0  0  0  0  0  0  0  0
    1.6500   -0.9529    0.0000 C   0  0  0  0  0  0  0  0  0  0  0  0
    2.3645   -1.3654    0.0000 C   0  0  0  0  0  0  0  0  0  0  0  0
    1.6500   -2.6029    0.0000 C   0  0  0  0  0  0  0  0  0  0  0  0
  1 11  1  0  0  0  0
  1 12  1  0  0  0  0
  2  4  1  0  0  0  0
  3  4  1  0  0  0  0
  3  5  1  0  0  0  0
  4  6  1  0  0  0  0
  5  7  2  0  0  0  0
  5  8  1  0  0  0  0
  7  9  1  0  0  0  0
  8 10  2  0  0  0  0
  9 11  2  0  0  0  0
 10 11  1  0  0  0  0
M  END
> <DATABASE_ID>
DB01472

> <DATABASE_NAME>
drugbank

> <SMILES>
COC1=CC=C(CC(C)N)C=C1

> <INCHI_IDENTIFIER>
InChI=1S/C10H15NO/c1-8(11)7-9-3-5-10(12-2)6-4-9/h3-6,8H,7,11H2,1-2H3

> <INCHI_KEY>
NEGYEDYHPHMHGK-UHFFFAOYSA-N

> <FORMULA>
C10H15NO

> <MOLECULAR_WEIGHT>
165.2322

> <EXACT_MASS>
165.115364107

> <JCHEM_ACCEPTOR_COUNT>
2

> <JCHEM_AVERAGE_POLARIZABILITY>
19.287188751333723

> <JCHEM_BIOAVAILABILITY>
1

> <JCHEM_DONOR_COUNT>
1

> <JCHEM_FORMAL_CHARGE>
0

> <JCHEM_GHOSE_FILTER>
1

> <JCHEM_IUPAC>
1-(4-methoxyphenyl)propan-2-amine

> <ALOGPS_LOGP>
1.74

> <JCHEM_LOGP>
1.646579216

> <ALOGPS_LOGS>
-2.25

> <JCHEM_MDDR_LIKE_RULE>
0

> <JCHEM_NUMBER_OF_RINGS>
1

> <JCHEM_PHYSIOLOGICAL_CHARGE>
1

> <JCHEM_PKA_STRONGEST_BASIC>
10.041056864354553

> <JCHEM_POLAR_SURFACE_AREA>
35.25

> <JCHEM_REFRACTIVITY>
50.168400000000005

> <JCHEM_ROTATABLE_BOND_COUNT>
3

> <JCHEM_RULE_OF_FIVE>
1

> <ALOGPS_SOLUBILITY>
9.28e-01 g/l

> <JCHEM_TRADITIONAL_IUPAC>
P-methoxyamphetamine

> <JCHEM_VEBER_RULE>
1

> <DRUGBANK_ID>
DB01472

> <SECONDARY_ACCESSION_NUMBERS>
EXPT03303

> <DRUG_GROUPS>
experimental; illicit

> <GENERIC_NAME>
4-Methoxyamphetamine

> <SYNONYMS>
(2RS)-1-(4-methoxyphenyl)propan-2-amine; 4-methoxyamfetamine; D,L-p-methoxyamphetamine; Formoterol fumarate related compound G; P-methoxyamfetamine; P-methoxyamphetamine; Paramethoxyamphetamine

$$$$

  Mrv1572004221605332D          

 20 21  0  0  1  0            999 V2000
    1.3501    4.9592    0.0000 C   0  0  0  0  0  0  0  0  0  0  0  0
   -2.1360    3.2034    0.0000 C   0  0  0  0  0  0  0  0  0  0  0  0
   -2.0363    6.0596    0.0000 C   0  0  0  0  0  0  0  0  0  0  0  0
    0.6086    4.5976    0.0000 C   0  0  0  0  0  0  0  0  0  0  0  0
   -0.8744    1.3993    0.0000 C   0  0  0  0  0  0  0  0  0  0  0  0
   -0.1599    1.8118    0.0000 C   0  0  0  0  0  0  0  0  0  0  0  0
   -1.5888    1.8118    0.0000 C   0  0  0  0  0  0  0  0  0  0  0  0
   -0.1599    2.6368    0.0000 C   0  0  0  0  0  0  0  0  0  0  0  0
   -1.5888    2.6368    0.0000 C   0  0  0  0  0  0  0  0  0  0  0  0
   -0.4372    4.5739    0.0000 C   0  0  0  0  0  0  0  0  0  0  0  0
   -0.8245    5.3024    0.0000 C   0  0  0  0  0  0  0  0  0  0  0  0
   -2.0862    4.6315    0.0000 C   0  0  0  0  0  0  0  0  0  0  0  0
   -1.6989    3.9031    0.0000 C   0  0  2  0  0  0  0  0  0  0  0  0
   -0.8744    3.0493    0.0000 C   0  0  0  0  0  0  0  0  0  0  0  0
    0.5511    3.7746    0.0000 C   0  0  0  0  0  0  0  0  0  0  0  0
   -0.8744    3.8743    0.0000 C   0  0  1  0  0  0  0  0  0  0  0  0
   -1.6490    5.3311    0.0000 N   0  0  0  0  0  0  0  0  0  0  0  0
    1.2351    3.3133    0.0000 O   0  0  0  0  0  0  0  0  0  0  0  0
   -0.1904    3.4129    0.0000 O   0  0  0  0  0  0  0  0  0  0  0  0
   -2.5234    3.9319    0.0000 H   0  0  0  0  0  0  0  0  0  0  0  0
  4  1  1  0  0  0  0
  6  5  2  0  0  0  0
  7  5  1  0  0  0  0
  8  6  1  0  0  0  0
  9  7  2  0  0  0  0
 11 10  1  0  0  0  0
 13  2  1  6  0  0  0
 13 12  1  0  0  0  0
 14  8  2  0  0  0  0
 14  9  1  0  0  0  0
 15  4  1  0  0  0  0
 16 10  1  0  0  0  0
 16 13  1  0  0  0  0
 16 14  1  6  0  0  0
 17  3  1  0  0  0  0
 17 11  1  0  0  0  0
 17 12  1  0  0  0  0
 18 15  2  0  0  0  0
 19 15  1  0  0  0  0
 16 19  1  1  0  0  0
 13 20  1  1  0  0  0
M  END
> <DATABASE_ID>
DB01473

> <DATABASE_NAME>
drugbank

> <SMILES>
[H][C@@]1(C)CN(C)CC[C@]1(OC(=O)CC)C1=CC=CC=C1

> <INCHI_IDENTIFIER>
InChI=1S/C16H23NO2/c1-4-15(18)19-16(14-8-6-5-7-9-14)10-11-17(3)12-13(16)2/h5-9,13H,4,10-12H2,1-3H3/t13-,16-/m1/s1

> <INCHI_KEY>
UVAZQQHAVMNMHE-CZUORRHYSA-N

> <FORMULA>
C16H23NO2

> <MOLECULAR_WEIGHT>
261.365

> <EXACT_MASS>
261.172878985

> <JCHEM_ACCEPTOR_COUNT>
2

> <JCHEM_ATOM_COUNT>
42

> <JCHEM_AVERAGE_POLARIZABILITY>
30.00012266761184

> <JCHEM_BIOAVAILABILITY>
1

> <JCHEM_DONOR_COUNT>
0

> <JCHEM_FORMAL_CHARGE>
0

> <JCHEM_GHOSE_FILTER>
1

> <JCHEM_IUPAC>
(3R,4R)-1,3-dimethyl-4-phenylpiperidin-4-yl propanoate

> <ALOGPS_LOGP>
3.24

> <JCHEM_LOGP>
2.7774557059999987

> <ALOGPS_LOGS>
-2.74

> <JCHEM_MDDR_LIKE_RULE>
0

> <JCHEM_NUMBER_OF_RINGS>
2

> <JCHEM_PHYSIOLOGICAL_CHARGE>
1

> <JCHEM_PKA_STRONGEST_BASIC>
8.898816971383985

> <JCHEM_POLAR_SURFACE_AREA>
29.540000000000003

> <JCHEM_REFRACTIVITY>
76.40939999999999

> <JCHEM_ROTATABLE_BOND_COUNT>
4

> <JCHEM_RULE_OF_FIVE>
1

> <ALOGPS_SOLUBILITY>
4.75e-01 g/l

> <JCHEM_TRADITIONAL_IUPAC>
(3R,4R)-1,3-dimethyl-4-phenylpiperidin-4-yl propanoate

> <JCHEM_VEBER_RULE>
1

> <DRUGBANK_ID>
DB01473

> <DRUG_GROUPS>
experimental; illicit

> <GENERIC_NAME>
Betaprodine

> <SYNONYMS>
beta-Prodine; Betaprodina; Betaprodinum

$$$$

  Mrv1652306021700232D          

 22 25  0  0  0  0            999 V2000
    0.5124   -0.8668    0.0000 C   0  0  0  0  0  0  0  0  0  0  0  0
    0.7927   -0.0908    0.0000 C   0  0  2  0  0  0  0  0  0  0  0  0
    1.3245   -0.7215    0.0000 C   0  0  0  0  0  0  0  0  0  0  0  0
    2.1366   -0.5763    0.0000 C   0  0  0  0  0  0  0  0  0  0  0  0
    2.4169    0.1995    0.0000 C   0  0  1  0  0  0  0  0  0  0  0  0
    1.8851    0.8302    0.0000 C   0  0  0  0  0  0  0  0  0  0  0  0
    1.0730    0.6850    0.0000 C   0  0  0  0  0  0  0  0  0  0  0  0
    0.5412    1.3157    0.0000 C   0  0  0  0  0  0  0  0  0  0  0  0
   -0.2709    1.1705    0.0000 C   0  0  0  0  0  0  0  0  0  0  0  0
   -0.5512    0.3946    0.0000 C   0  0  2  0  0  0  0  0  0  0  0  0
   -0.0193   -0.2361    0.0000 C   0  0  2  0  0  0  0  0  0  0  0  0
   -0.2996   -1.0120    0.0000 C   0  0  0  0  0  0  0  0  0  0  0  0
   -1.1118   -1.1572    0.0000 C   0  0  0  0  0  0  0  0  0  0  0  0
   -1.6436   -0.5265    0.0000 C   0  0  1  0  0  0  0  0  0  0  0  0
   -1.3633    0.2493    0.0000 C   0  0  1  0  0  0  0  0  0  0  0  0
   -2.0146    0.7557    0.0000 C   0  0  0  0  0  0  0  0  0  0  0  0
   -2.6975    0.2927    0.0000 C   0  0  0  0  0  0  0  0  0  0  0  0
   -2.4681   -0.4997    0.0000 C   0  0  1  0  0  0  0  0  0  0  0  0
   -3.2290   -0.8186    0.0000 C   0  0  0  0  0  0  0  0  0  0  0  0
   -2.5896   -1.3157    0.0000 O   0  0  0  0  0  0  0  0  0  0  0  0
   -2.0035   -1.2689    0.0000 C   0  0  0  0  0  0  0  0  0  0  0  0
    3.2290    0.3447    0.0000 O   0  0  0  0  0  0  0  0  0  0  0  0
  2  1  1  1  0  0  0
  2  3  1  0  0  0  0
  3  4  1  0  0  0  0
  4  5  1  0  0  0  0
  5  6  1  0  0  0  0
  6  7  2  0  0  0  0
  2  7  1  0  0  0  0
  7  8  1  0  0  0  0
  8  9  1  0  0  0  0
 10  9  1  6  0  0  0
 10 11  1  0  0  0  0
  2 11  1  0  0  0  0
 11 12  1  1  0  0  0
 12 13  1  0  0  0  0
 13 14  1  0  0  0  0
 14 15  1  0  0  0  0
 10 15  1  0  0  0  0
 15 16  1  1  0  0  0
 16 17  1  0  0  0  0
 17 18  1  0  0  0  0
 14 18  1  0  0  0  0
 18 19  1  6  0  0  0
 18 20  1  1  0  0  0
 14 21  1  1  0  0  0
  5 22  1  1  0  0  0
M  END
> <DATABASE_ID>
DB01474

> <DATABASE_NAME>
drugbank

> <SMILES>
C[C@]1(O)CC[C@H]2[C@@H]3CCC4=C[C@@H](O)CC[C@]4(C)[C@H]3CC[C@]12C

> <INCHI_IDENTIFIER>
InChI=1S/C20H32O2/c1-18-9-6-14(21)12-13(18)4-5-15-16(18)7-10-19(2)17(15)8-11-20(19,3)22/h12,14-17,21-22H,4-11H2,1-3H3/t14-,15+,16-,17-,18-,19-,20-/m0/s1

> <INCHI_KEY>
BNUOCVTVOYWNJC-DTMQFJJTSA-N

> <FORMULA>
C20H32O2

> <MOLECULAR_WEIGHT>
304.474

> <EXACT_MASS>
304.24023027

> <JCHEM_ACCEPTOR_COUNT>
2

> <JCHEM_ATOM_COUNT>
54

> <JCHEM_AVERAGE_POLARIZABILITY>
36.136072748396415

> <JCHEM_BIOAVAILABILITY>
1

> <JCHEM_DONOR_COUNT>
2

> <JCHEM_FORMAL_CHARGE>
0

> <JCHEM_GHOSE_FILTER>
1

> <JCHEM_IUPAC>
(1S,2R,5S,10R,11S,14S,15S)-2,14,15-trimethyltetracyclo[8.7.0.0^{2,7}.0^{11,15}]heptadec-6-ene-5,14-diol

> <ALOGPS_LOGP>
3.52

> <JCHEM_LOGP>
3.2346614780000005

> <ALOGPS_LOGS>
-3.95

> <JCHEM_MDDR_LIKE_RULE>
0

> <JCHEM_NUMBER_OF_RINGS>
4

> <JCHEM_PHYSIOLOGICAL_CHARGE>
0

> <JCHEM_PKA_STRONGEST_ACIDIC>
17.504415926529536

> <JCHEM_PKA_STRONGEST_BASIC>
-0.500012057072685

> <JCHEM_POLAR_SURFACE_AREA>
40.46

> <JCHEM_REFRACTIVITY>
89.9654

> <JCHEM_ROTATABLE_BOND_COUNT>
0

> <JCHEM_RULE_OF_FIVE>
1

> <ALOGPS_SOLUBILITY>
3.39e-02 g/l

> <JCHEM_TRADITIONAL_IUPAC>
(1S,2R,5S,10R,11S,14S,15S)-2,14,15-trimethyltetracyclo[8.7.0.0^{2,7}.0^{11,15}]heptadec-6-ene-5,14-diol

> <JCHEM_VEBER_RULE>
0

> <DRUGBANK_ID>
DB01474

> <DRUG_GROUPS>
experimental; illicit

> <GENERIC_NAME>
17alpha-methyl-3beta,17beta-dihydroxyandrost-4-ene

> <SYNONYMS>
17-Methylandrost-4-ene-3beta,17beta-diol

$$$$
1475
  Mrv0541 02231215302D          

 26 28  0  0  0  0            999 V2000
    1.6500    0.7145    0.0000 O   0  0  0  0  0  0  0  0  0  0  0  0
    6.6001   -0.7145    0.0000 O   0  0  0  0  0  0  0  0  0  0  0  0
    6.6001    0.7145    0.0000 O   0  0  0  0  0  0  0  0  0  0  0  0
    3.3001    0.7145    0.0000 N   0  0  0  0  0  0  0  0  0  0  0  0
    5.3626    0.0000    0.0000 C   0  0  0  0  0  0  0  0  0  0  0  0
    4.5376    0.0000    0.0000 C   0  0  0  0  0  0  0  0  0  0  0  0
    4.1251    0.7145    0.0000 C   0  0  0  0  0  0  0  0  0  0  0  0
    2.8876    1.4290    0.0000 C   0  0  0  0  0  0  0  0  0  0  0  0
    2.8876    0.0000    0.0000 C   0  0  0  0  0  0  0  0  0  0  0  0
    5.3626    0.8250    0.0000 C   0  0  0  0  0  0  0  0  0  0  0  0
    5.3626   -0.8250    0.0000 C   0  0  0  0  0  0  0  0  0  0  0  0
    6.1876    0.0000    0.0000 C   0  0  0  0  0  0  0  0  0  0  0  0
    2.0625    1.4290    0.0000 C   0  0  0  0  0  0  0  0  0  0  0  0
    2.0625    0.0000    0.0000 C   0  0  0  0  0  0  0  0  0  0  0  0
    4.6482    1.2375    0.0000 C   0  0  0  0  0  0  0  0  0  0  0  0
    6.0771   -1.2375    0.0000 C   0  0  0  0  0  0  0  0  0  0  0  0
    6.0771    1.2375    0.0000 C   0  0  0  0  0  0  0  0  0  0  0  0
    4.6482   -1.2375    0.0000 C   0  0  0  0  0  0  0  0  0  0  0  0
    4.6482    2.0625    0.0000 C   0  0  0  0  0  0  0  0  0  0  0  0
    6.0771   -2.0625    0.0000 C   0  0  0  0  0  0  0  0  0  0  0  0
    6.0771    2.0625    0.0000 C   0  0  0  0  0  0  0  0  0  0  0  0
    4.6482   -2.0625    0.0000 C   0  0  0  0  0  0  0  0  0  0  0  0
    5.3626    2.4751    0.0000 C   0  0  0  0  0  0  0  0  0  0  0  0
    5.3626   -2.4751    0.0000 C   0  0  0  0  0  0  0  0  0  0  0  0
    7.4252   -0.7145    0.0000 C   0  0  0  0  0  0  0  0  0  0  0  0
    7.8377   -1.4290    0.0000 C   0  0  0  0  0  0  0  0  0  0  0  0
  1 13  1  0  0  0  0
  1 14  1  0  0  0  0
  2 12  1  0  0  0  0
  2 25  1  0  0  0  0
  3 12  2  0  0  0  0
  4  7  1  0  0  0  0
  4  8  1  0  0  0  0
  4  9  1  0  0  0  0
  5  6  1  0  0  0  0
  5 10  1  0  0  0  0
  5 11  1  0  0  0  0
  5 12  1  0  0  0  0
  6  7  1  0  0  0  0
  8 13  1  0  0  0  0
  9 14  1  0  0  0  0
 10 15  2  0  0  0  0
 10 17  1  0  0  0  0
 11 16  2  0  0  0  0
 11 18  1  0  0  0  0
 15 19  1  0  0  0  0
 16 20  1  0  0  0  0
 17 21  2  0  0  0  0
 18 22  2  0  0  0  0
 19 23  2  0  0  0  0
 20 24  2  0  0  0  0
 21 23  1  0  0  0  0
 22 24  1  0  0  0  0
 25 26  1  0  0  0  0
M  END
> <DATABASE_ID>
DB01475

> <DATABASE_NAME>
drugbank

> <SMILES>
CCOC(=O)C(CCN1CCOCC1)(C1=CC=CC=C1)C1=CC=CC=C1

> <INCHI_IDENTIFIER>
InChI=1S/C22H27NO3/c1-2-26-21(24)22(19-9-5-3-6-10-19,20-11-7-4-8-12-20)13-14-23-15-17-25-18-16-23/h3-12H,2,13-18H2,1H3

> <INCHI_KEY>
LQGIXNQCOXNCRP-UHFFFAOYSA-N

> <FORMULA>
C22H27NO3

> <MOLECULAR_WEIGHT>
353.4547

> <EXACT_MASS>
353.199093735

> <JCHEM_ACCEPTOR_COUNT>
3

> <JCHEM_AVERAGE_POLARIZABILITY>
39.32753805593448

> <JCHEM_BIOAVAILABILITY>
1

> <JCHEM_DONOR_COUNT>
0

> <JCHEM_FORMAL_CHARGE>
0

> <JCHEM_GHOSE_FILTER>
1

> <JCHEM_IUPAC>
ethyl 4-(morpholin-4-yl)-2,2-diphenylbutanoate

> <ALOGPS_LOGP>
3.76

> <JCHEM_LOGP>
3.8446367999999995

> <ALOGPS_LOGS>
-4.36

> <JCHEM_MDDR_LIKE_RULE>
1

> <JCHEM_NUMBER_OF_RINGS>
3

> <JCHEM_PHYSIOLOGICAL_CHARGE>
0

> <JCHEM_PKA_STRONGEST_BASIC>
6.884555288641925

> <JCHEM_POLAR_SURFACE_AREA>
38.77

> <JCHEM_REFRACTIVITY>
103.26430000000005

> <JCHEM_ROTATABLE_BOND_COUNT>
8

> <JCHEM_RULE_OF_FIVE>
1

> <ALOGPS_SOLUBILITY>
1.54e-02 g/l

> <JCHEM_TRADITIONAL_IUPAC>
dioxaphetyl butyrate

> <JCHEM_VEBER_RULE>
1

> <DRUGBANK_ID>
DB01475

> <DRUG_GROUPS>
experimental; illicit

> <GENERIC_NAME>
Dioxaphetyl butyrate

$$$$
1476
  Mrv0541 02231215302D          

 23 26  0  0  1  0            999 V2000
    1.6500   -0.7747    0.0000 Br  0  0  0  0  0  0  0  0  0  0  0  0
    5.1559   -1.7086    0.0000 F   0  0  0  0  0  0  0  0  0  0  0  0
    4.5520   -1.0344    0.0000 O   0  0  0  0  0  0  0  0  0  0  0  0
    5.2103    2.3286    0.0000 O   0  0  0  0  0  0  0  0  0  0  0  0
    5.1832    0.1360    0.0000 N   0  0  0  0  0  0  0  0  0  0  0  0
    4.0273    1.5853    0.0000 N   0  0  0  0  0  0  0  0  0  0  0  0
    4.4398   -0.2220    0.0000 C   0  0  0  0  0  0  0  0  0  0  0  0
    5.7484   -0.4583    0.0000 C   0  0  0  0  0  0  0  0  0  0  0  0
    3.6966    0.1360    0.0000 C   0  0  0  0  0  0  0  0  0  0  0  0
    5.3591   -1.1802    0.0000 C   0  0  0  0  0  0  0  0  0  0  0  0
    5.3667    0.9403    0.0000 C   0  0  0  0  0  0  0  0  0  0  0  0
    3.9751   -0.9036    0.0000 C   0  0  0  0  0  0  0  0  0  0  0  0
    3.5130    0.9403    0.0000 C   0  0  0  0  0  0  0  0  0  0  0  0
    4.8523    1.5853    0.0000 C   0  0  0  0  0  0  0  0  0  0  0  0
    3.0757   -0.4582    0.0000 C   0  0  0  0  0  0  0  0  0  0  0  0
    4.3331   -1.6470    0.0000 C   0  0  0  0  0  0  0  0  0  0  0  0
    3.1524   -0.8420    0.0000 C   0  0  0  0  0  0  0  0  0  0  0  0
    2.6958    1.2062    0.0000 C   0  0  0  0  0  0  0  0  0  0  0  0
    2.2526   -0.2112    0.0000 C   0  0  0  0  0  0  0  0  0  0  0  0
    2.0614    0.6266    0.0000 C   0  0  0  0  0  0  0  0  0  0  0  0
    3.8684   -2.3286    0.0000 C   0  0  0  0  0  0  0  0  0  0  0  0
    2.6876   -1.5236    0.0000 C   0  0  0  0  0  0  0  0  0  0  0  0
    3.0456   -2.2669    0.0000 C   0  0  0  0  0  0  0  0  0  0  0  0
  1 19  1  0  0  0  0
  2 16  1  0  0  0  0
  3  7  1  0  0  0  0
  3 10  1  0  0  0  0
  4 14  2  0  0  0  0
  5  7  1  0  0  0  0
  5  8  1  0  0  0  0
  5 11  1  0  0  0  0
  6 13  1  0  0  0  0
  6 14  1  0  0  0  0
  7  9  1  0  0  0  0
  7 12  1  0  0  0  0
  8 10  1  0  0  0  0
  9 13  2  0  0  0  0
  9 15  1  0  0  0  0
 11 14  1  0  0  0  0
 12 16  1  0  0  0  0
 12 17  2  0  0  0  0
 13 18  1  0  0  0  0
 15 19  2  0  0  0  0
 16 21  2  0  0  0  0
 17 22  1  0  0  0  0
 18 20  2  0  0  0  0
 19 20  1  0  0  0  0
 21 23  1  0  0  0  0
 22 23  2  0  0  0  0
M  END
> <DATABASE_ID>
DB01476

> <DATABASE_NAME>
drugbank

> <SMILES>
FC1=CC=CC=C1C12OCCN1CC(=O)NC1=C2C=C(Br)C=C1

> <INCHI_IDENTIFIER>
InChI=1S/C17H14BrFN2O2/c18-11-5-6-15-13(9-11)17(12-3-1-2-4-14(12)19)21(7-8-23-17)10-16(22)20-15/h1-6,9H,7-8,10H2,(H,20,22)

> <INCHI_KEY>
XDKCGKQHVBOOHC-UHFFFAOYSA-N

> <FORMULA>
C17H14BrFN2O2

> <MOLECULAR_WEIGHT>
377.208

> <EXACT_MASS>
376.022268554

> <JCHEM_ACCEPTOR_COUNT>
3

> <JCHEM_AVERAGE_POLARIZABILITY>
32.980830832416906

> <JCHEM_BIOAVAILABILITY>
1

> <JCHEM_DONOR_COUNT>
1

> <JCHEM_FORMAL_CHARGE>
0

> <JCHEM_GHOSE_FILTER>
1

> <JCHEM_IUPAC>
13-bromo-2-(2-fluorophenyl)-3-oxa-6,9-diazatricyclo[8.4.0.0²,⁶]tetradeca-1(10),11,13-trien-8-one

> <ALOGPS_LOGP>
2.98

> <JCHEM_LOGP>
3.831294240666666

> <ALOGPS_LOGS>
-4.09

> <JCHEM_MDDR_LIKE_RULE>
0

> <JCHEM_NUMBER_OF_RINGS>
4

> <JCHEM_PHYSIOLOGICAL_CHARGE>
0

> <JCHEM_PKA_STRONGEST_ACIDIC>
12.679915998605413

> <JCHEM_PKA_STRONGEST_BASIC>
2.220388963530057

> <JCHEM_POLAR_SURFACE_AREA>
41.57

> <JCHEM_REFRACTIVITY>
89.27610000000001

> <JCHEM_ROTATABLE_BOND_COUNT>
1

> <JCHEM_RULE_OF_FIVE>
1

> <ALOGPS_SOLUBILITY>
3.08e-02 g/l

> <JCHEM_TRADITIONAL_IUPAC>
haloxazolam

> <JCHEM_VEBER_RULE>
0

> <DRUGBANK_ID>
DB01476

> <DRUG_GROUPS>
experimental; illicit

> <GENERIC_NAME>
Haloxazolam

> <SYNONYMS>
Haloxazolam; Haloxazolamum

> <INTERNATIONAL_BRANDS>
Somelin

$$$$
1477
  Mrv0541 02231215312D          

 27 30  0  0  1  0            999 V2000
    0.0000    2.8384    0.0000 Br  0  5  0  0  0  0  0  0  0  0  0  0
    2.9071    2.6673    0.0000 O   0  0  0  0  0  0  0  0  0  0  0  0
    2.7064    0.5378    0.0000 O   0  0  0  0  0  0  0  0  0  0  0  0
    2.7064    4.7052    0.0000 O   0  0  0  0  0  0  0  0  0  0  0  0
    6.3153    1.7965    0.0000 N   0  3  0  0  0  0  0  0  0  0  0  0
    4.1720    2.2090    0.0000 C   0  0  2  0  0  0  0  0  0  0  0  0
    4.8864    1.7965    0.0000 C   0  0  2  0  0  0  0  0  0  0  0  0
    5.6009    2.2090    0.0000 C   0  0  1  0  0  0  0  0  0  0  0  0
    4.6487    2.8140    0.0000 C   0  0  0  0  0  0  0  0  0  0  0  0
    3.4575    1.7965    0.0000 C   0  0  2  0  0  0  0  0  0  0  0  0
    4.1720    3.0340    0.0000 C   0  0  0  0  0  0  0  0  0  0  0  0
    5.8220    2.8140    0.0000 C   0  0  0  0  0  0  0  0  0  0  0  0
    5.6009    3.0340    0.0000 C   0  0  0  0  0  0  0  0  0  0  0  0
    4.8864    3.4464    0.0000 C   0  0  0  0  0  0  0  0  0  0  0  0
    4.8864    0.9715    0.0000 C   0  0  0  0  0  0  0  0  0  0  0  0
    3.4575    0.9715    0.0000 C   0  0  2  0  0  0  0  0  0  0  0  0
    3.4575    3.4464    0.0000 C   0  0  0  0  0  0  0  0  0  0  0  0
    7.1446    1.5419    0.0000 C   0  0  0  0  0  0  0  0  0  0  0  0
    6.5096    0.9510    0.0000 C   0  0  0  0  0  0  0  0  0  0  0  0
    4.1720    0.5591    0.0000 C   0  0  0  0  0  0  0  0  0  0  0  0
    4.8864    4.2714    0.0000 C   0  0  0  0  0  0  0  0  0  0  0  0
    3.4575    4.2714    0.0000 C   0  0  0  0  0  0  0  0  0  0  0  0
    4.1720    4.6839    0.0000 C   0  0  0  0  0  0  0  0  0  0  0  0
    2.7064    5.5726    0.0000 C   0  0  0  0  0  0  0  0  0  0  0  0
    5.3326    1.2649    0.0000 H   0  0  0  0  0  0  0  0  0  0  0  0
    5.8388    1.5571    0.0000 H   0  0  0  0  0  0  0  0  0  0  0  0
    2.7910    1.6034    0.0000 H   0  0  0  0  0  0  0  0  0  0  0  0
  2 10  1  0  0  0  0
  2 17  1  0  0  0  0
 16  3  1  6  0  0  0
  4 22  1  0  0  0  0
  4 24  1  0  0  0  0
  5  8  1  0  0  0  0
  5 12  1  0  0  0  0
  5 18  1  0  0  0  0
  5 19  1  0  0  0  0
  6  7  1  0  0  0  0
  6  9  1  1  0  0  0
  6 10  1  0  0  0  0
  6 11  1  0  0  0  0
  7  8  1  0  0  0  0
  7 15  1  0  0  0  0
  7 25  1  1  0  0  0
  8 13  1  0  0  0  0
  8 26  1  6  0  0  0
  9 12  1  0  0  0  0
 10 16  1  0  0  0  0
 10 27  1  1  0  0  0
 11 14  2  0  0  0  0
 11 17  1  0  0  0  0
 13 14  1  0  0  0  0
 14 21  1  0  0  0  0
 15 20  2  0  0  0  0
 16 20  1  0  0  0  0
 17 22  2  0  0  0  0
 21 23  2  0  0  0  0
 22 23  1  0  0  0  0
M  CHG  2   1  -1   5   1
M  END
> <DATABASE_ID>
DB01477

> <DATABASE_NAME>
drugbank

> <SMILES>
[Br-].[H][C@@]12OC3=C(OC)C=CC4=C3[C@@]11CC[N+](C)(C)[C@]([H])(C4)[C@]1([H])C=C[C@@H]2O

> <INCHI_IDENTIFIER>
InChI=1S/C19H24NO3.BrH/c1-20(2)9-8-19-12-5-6-14(21)18(19)23-17-15(22-3)7-4-11(16(17)19)10-13(12)20;/h4-7,12-14,18,21H,8-10H2,1-3H3;1H/q+1;/p-1/t12-,13+,14-,18-,19-;/m0./s1

> <INCHI_KEY>
KIKLDWULAZATJG-YZZSNFJZSA-M

> <FORMULA>
C19H24BrNO3

> <MOLECULAR_WEIGHT>
394.303

> <EXACT_MASS>
393.093956286

> <JCHEM_ACCEPTOR_COUNT>
3

> <JCHEM_AVERAGE_POLARIZABILITY>
34.03204863509485

> <JCHEM_BIOAVAILABILITY>
1

> <JCHEM_DONOR_COUNT>
1

> <JCHEM_FORMAL_CHARGE>
0

> <JCHEM_GHOSE_FILTER>
0

> <JCHEM_IUPAC>
(1S,5R,13R,14S,17R)-14-hydroxy-10-methoxy-4,4-dimethyl-12-oxa-4-azapentacyclo[9.6.1.0¹,¹³.0⁵,¹⁷.0⁷,¹⁸]octadeca-7(18),8,10,15-tetraen-4-ium bromide

> <ALOGPS_LOGP>
-1.92

> <JCHEM_LOGP>
-2.819385333471746

> <ALOGPS_LOGS>
-5.61

> <JCHEM_MDDR_LIKE_RULE>
0

> <JCHEM_NUMBER_OF_RINGS>
5

> <JCHEM_PHYSIOLOGICAL_CHARGE>
1

> <JCHEM_PKA_STRONGEST_ACIDIC>
13.780093628209162

> <JCHEM_PKA_STRONGEST_BASIC>
-3.332387047021312

> <JCHEM_POLAR_SURFACE_AREA>
38.69

> <JCHEM_REFRACTIVITY>
100.51830000000001

> <JCHEM_ROTATABLE_BOND_COUNT>
1

> <JCHEM_RULE_OF_FIVE>
1

> <ALOGPS_SOLUBILITY>
9.59e-04 g/l

> <JCHEM_TRADITIONAL_IUPAC>
(1S,5R,13R,14S,17R)-14-hydroxy-10-methoxy-4,4-dimethyl-12-oxa-4-azapentacyclo[9.6.1.0¹,¹³.0⁵,¹⁷.0⁷,¹⁸]octadeca-7(18),8,10,15-tetraen-4-ium bromide

> <JCHEM_VEBER_RULE>
1

> <DRUGBANK_ID>
DB01477

> <DRUG_GROUPS>
experimental; illicit

> <GENERIC_NAME>
Codeine methylbromide

$$$$
1478
  Mrv0541 02231215312D          

 18 19  0  0  0  0            999 V2000
    3.7126    0.8803    0.0000 O   0  0  0  0  0  0  0  0  0  0  0  0
    2.4751    0.1658    0.0000 O   0  0  0  0  0  0  0  0  0  0  0  0
    4.1251   -1.4842    0.0000 N   0  0  0  0  0  0  0  0  0  0  0  0
    4.1251    0.1658    0.0000 C   0  0  0  0  0  0  0  0  0  0  0  0
    4.8396   -0.2467    0.0000 C   0  0  0  0  0  0  0  0  0  0  0  0
    3.4106   -0.2467    0.0000 C   0  0  0  0  0  0  0  0  0  0  0  0
    4.8396   -1.0717    0.0000 C   0  0  0  0  0  0  0  0  0  0  0  0
    3.4106   -1.0717    0.0000 C   0  0  0  0  0  0  0  0  0  0  0  0
    4.5376    0.8803    0.0000 C   0  0  0  0  0  0  0  0  0  0  0  0
    4.1251   -2.3092    0.0000 C   0  0  0  0  0  0  0  0  0  0  0  0
    4.1251    1.5948    0.0000 C   0  0  0  0  0  0  0  0  0  0  0  0
    5.3626    0.8803    0.0000 C   0  0  0  0  0  0  0  0  0  0  0  0
    2.8876    0.8803    0.0000 C   0  0  0  0  0  0  0  0  0  0  0  0
    4.5376    2.3092    0.0000 C   0  0  0  0  0  0  0  0  0  0  0  0
    5.7751    1.5948    0.0000 C   0  0  0  0  0  0  0  0  0  0  0  0
    2.4751    1.5948    0.0000 C   0  0  0  0  0  0  0  0  0  0  0  0
    5.3626    2.3092    0.0000 C   0  0  0  0  0  0  0  0  0  0  0  0
    1.6500    1.5948    0.0000 C   0  0  0  0  0  0  0  0  0  0  0  0
  1  4  1  0  0  0  0
  1 13  1  0  0  0  0
  2 13  2  0  0  0  0
  3  7  1  0  0  0  0
  3  8  1  0  0  0  0
  3 10  1  0  0  0  0
  4  5  1  0  0  0  0
  4  6  1  0  0  0  0
  4  9  1  0  0  0  0
  5  7  1  0  0  0  0
  6  8  1  0  0  0  0
  9 11  2  0  0  0  0
  9 12  1  0  0  0  0
 11 14  1  0  0  0  0
 12 15  2  0  0  0  0
 13 16  1  0  0  0  0
 14 17  2  0  0  0  0
 15 17  1  0  0  0  0
 16 18  1  0  0  0  0
M  END
> <DATABASE_ID>
DB01478

> <DATABASE_NAME>
drugbank

> <SMILES>
CCC(=O)OC1(CCN(C)CC1)C1=CC=CC=C1

> <INCHI_IDENTIFIER>
InChI=1S/C15H21NO2/c1-3-14(17)18-15(9-11-16(2)12-10-15)13-7-5-4-6-8-13/h4-8H,3,9-12H2,1-2H3

> <INCHI_KEY>
BCQMRZRAWHNSBF-UHFFFAOYSA-N

> <FORMULA>
C15H21NO2

> <MOLECULAR_WEIGHT>
247.3327

> <EXACT_MASS>
247.157228921

> <JCHEM_ACCEPTOR_COUNT>
2

> <JCHEM_AVERAGE_POLARIZABILITY>
28.035770201454586

> <JCHEM_BIOAVAILABILITY>
1

> <JCHEM_DONOR_COUNT>
0

> <JCHEM_FORMAL_CHARGE>
0

> <JCHEM_GHOSE_FILTER>
1

> <JCHEM_IUPAC>
1-methyl-4-phenylpiperidin-4-yl propanoate

> <ALOGPS_LOGP>
2.91

> <JCHEM_LOGP>
2.2981321466666658

> <ALOGPS_LOGS>
-2.31

> <JCHEM_MDDR_LIKE_RULE>
0

> <JCHEM_NUMBER_OF_RINGS>
2

> <JCHEM_PHYSIOLOGICAL_CHARGE>
1

> <JCHEM_PKA_STRONGEST_BASIC>
8.584369642220128

> <JCHEM_POLAR_SURFACE_AREA>
29.54

> <JCHEM_REFRACTIVITY>
71.99300000000001

> <JCHEM_ROTATABLE_BOND_COUNT>
4

> <JCHEM_RULE_OF_FIVE>
1

> <ALOGPS_SOLUBILITY>
1.22e+00 g/l

> <JCHEM_TRADITIONAL_IUPAC>
PPMP

> <JCHEM_VEBER_RULE>
1

> <DRUGBANK_ID>
DB01478

> <DRUG_GROUPS>
experimental; illicit

> <GENERIC_NAME>
Desmethylprodine

> <SYNONYMS>
1-Methyl-4-phenyl-4-piperidinol propionate; 1-Methyl-4-phenyl-4-propionoxypiperidine; 3-Demethylprodine; MPPP

> <SALTS>
Desmethylprodine hydrochloride

$$$$

  Mrv1652306131721572D          

 22 25  0  0  1  0            999 V2000
    4.5466   -0.5086    0.0000 C   0  0  0  0  0  0  0  0  0  0  0  0
    4.8269    0.2673    0.0000 C   0  0  2  0  0  0  0  0  0  0  0  0
    5.3587   -0.3634    0.0000 C   0  0  0  0  0  0  0  0  0  0  0  0
    6.1708   -0.2182    0.0000 C   0  0  0  0  0  0  0  0  0  0  0  0
    6.4511    0.5577    0.0000 C   0  0  2  0  0  0  0  0  0  0  0  0
    5.9193    1.1884    0.0000 C   0  0  0  0  0  0  0  0  0  0  0  0
    5.1072    1.0432    0.0000 C   0  0  2  0  0  0  0  0  0  0  0  0
    4.5754    1.6739    0.0000 C   0  0  0  0  0  0  0  0  0  0  0  0
    3.7633    1.5287    0.0000 C   0  0  0  0  0  0  0  0  0  0  0  0
    3.4830    0.7528    0.0000 C   0  0  2  0  0  0  0  0  0  0  0  0
    4.0148    0.1221    0.0000 C   0  0  2  0  0  0  0  0  0  0  0  0
    3.7345   -0.6539    0.0000 C   0  0  0  0  0  0  0  0  0  0  0  0
    2.9224   -0.7991    0.0000 C   0  0  0  0  0  0  0  0  0  0  0  0
    2.3905   -0.1684    0.0000 C   0  0  1  0  0  0  0  0  0  0  0  0
    2.6708    0.6076    0.0000 C   0  0  1  0  0  0  0  0  0  0  0  0
    2.0195    1.1139    0.0000 C   0  0  0  0  0  0  0  0  0  0  0  0
    1.3367    0.6509    0.0000 C   0  0  0  0  0  0  0  0  0  0  0  0
    1.5660   -0.1416    0.0000 C   0  0  1  0  0  0  0  0  0  0  0  0
    0.8051   -0.4604    0.0000 C   0  0  0  0  0  0  0  0  0  0  0  0
    1.4446   -0.9576    0.0000 O   0  0  0  0  0  0  0  0  0  0  0  0
    2.0307   -0.9107    0.0000 C   0  0  0  0  0  0  0  0  0  0  0  0
    7.2632    0.7029    0.0000 O   0  0  0  0  0  0  0  0  0  0  0  0
  2  1  1  1  0  0  0
  2  3  1  0  0  0  0
  3  4  1  0  0  0  0
  4  5  1  0  0  0  0
  5  6  1  0  0  0  0
  7  6  1  1  0  0  0
  2  7  1  0  0  0  0
  7  8  1  0  0  0  0
  8  9  1  0  0  0  0
 10  9  1  6  0  0  0
 10 11  1  0  0  0  0
  2 11  1  0  0  0  0
 11 12  1  1  0  0  0
 12 13  1  0  0  0  0
 13 14  1  0  0  0  0
 14 15  1  0  0  0  0
 10 15  1  0  0  0  0
 15 16  1  1  0  0  0
 16 17  1  0  0  0  0
 17 18  1  0  0  0  0
 14 18  1  0  0  0  0
 18 19  1  6  0  0  0
 18 20  1  1  0  0  0
 14 21  1  1  0  0  0
  5 22  1  6  0  0  0
M  END
> <DATABASE_ID>
DB01479

> <DATABASE_NAME>
drugbank

> <SMILES>
C[C@]1(O)CC[C@H]2[C@@H]3CC[C@H]4C[C@H](O)CC[C@]4(C)[C@H]3CC[C@]12C

> <INCHI_IDENTIFIER>
InChI=1S/C20H34O2/c1-18-9-6-14(21)12-13(18)4-5-15-16(18)7-10-19(2)17(15)8-11-20(19,3)22/h13-17,21-22H,4-12H2,1-3H3/t13-,14+,15+,16-,17-,18-,19-,20-/m0/s1

> <INCHI_KEY>
QGKQXZFZOIQFBI-XSWYFRFISA-N

> <FORMULA>
C20H34O2

> <MOLECULAR_WEIGHT>
306.49

> <EXACT_MASS>
306.255880335

> <JCHEM_ACCEPTOR_COUNT>
2

> <JCHEM_ATOM_COUNT>
56

> <JCHEM_AVERAGE_POLARIZABILITY>
37.05532129870035

> <JCHEM_BIOAVAILABILITY>
1

> <JCHEM_DONOR_COUNT>
2

> <JCHEM_FORMAL_CHARGE>
0

> <JCHEM_GHOSE_FILTER>
1

> <JCHEM_IUPAC>
(1S,2S,5R,7S,10R,11S,14S,15S)-2,14,15-trimethyltetracyclo[8.7.0.0^{2,7}.0^{11,15}]heptadecane-5,14-diol

> <ALOGPS_LOGP>
4.28

> <JCHEM_LOGP>
3.484333499333334

> <ALOGPS_LOGS>
-4.82

> <JCHEM_MDDR_LIKE_RULE>
0

> <JCHEM_NUMBER_OF_RINGS>
4

> <JCHEM_PHYSIOLOGICAL_CHARGE>
0

> <JCHEM_PKA_STRONGEST_ACIDIC>
18.2963963211217

> <JCHEM_PKA_STRONGEST_BASIC>
-0.46803704333201435

> <JCHEM_POLAR_SURFACE_AREA>
40.46

> <JCHEM_REFRACTIVITY>
89.2694

> <JCHEM_ROTATABLE_BOND_COUNT>
0

> <JCHEM_RULE_OF_FIVE>
1

> <ALOGPS_SOLUBILITY>
4.69e-03 g/l

> <JCHEM_TRADITIONAL_IUPAC>
(1S,2S,5R,7S,10R,11S,14S,15S)-2,14,15-trimethyltetracyclo[8.7.0.0^{2,7}.0^{11,15}]heptadecane-5,14-diol

> <JCHEM_VEBER_RULE>
0

> <DRUGBANK_ID>
DB01479

> <DRUG_GROUPS>
experimental; illicit

> <GENERIC_NAME>
BA-2664

> <SYNONYMS>
17alpha-methyl-3alpha,17beta-dihydroxy-5alpha-androstane

$$$$

  Mrv1572004081602492D          

 34 40  0  0  0  0            999 V2000
    2.7717   -1.3258    0.0000 C   0  0  0  0  0  0  0  0  0  0  0  0
    1.7359   -1.7951    0.0000 C   0  0  0  0  0  0  0  0  0  0  0  0
    1.2488   -2.5495    0.0000 C   0  0  0  0  0  0  0  0  0  0  0  0
   -2.7041    2.5495    0.0000 C   0  0  0  0  0  0  0  0  0  0  0  0
   -2.5110    1.7690    0.0000 C   0  0  0  0  0  0  0  0  0  0  0  0
   -2.5834    0.2074    0.0000 C   0  0  0  0  0  0  0  0  0  0  0  0
   -2.7717   -0.5958    0.0000 C   0  0  0  0  0  0  0  0  0  0  0  0
    0.3694   -0.0639    0.0000 C   0  0  0  0  0  0  0  0  0  0  0  0
    0.7053   -0.6813    0.0000 C   0  0  0  0  0  0  0  0  0  0  0  0
    0.0111    1.0183    0.0000 C   0  0  0  0  0  0  0  0  0  0  0  0
    0.2059    1.8316    0.0000 C   0  0  0  0  0  0  0  0  0  0  0  0
   -1.3482    1.1444    0.0000 C   0  0  0  0  0  0  0  0  0  0  0  0
    1.1176    0.1300    0.0000 C   0  0  0  0  0  0  0  0  0  0  0  0
   -1.1510    2.5195    0.0000 C   0  0  0  0  0  0  0  0  0  0  0  0
   -1.9316    2.3264    0.0000 C   0  0  0  0  0  0  0  0  0  0  0  0
   -1.7799    0.4367    0.0000 C   0  0  0  0  0  0  0  0  0  0  0  0
   -2.1810   -1.1654    0.0000 C   0  0  0  0  0  0  0  0  0  0  0  0
    1.2666   -0.7594    0.0000 C   0  0  2  0  0  0  0  0  0  0  0  0
   -0.5128    1.1029    0.0000 C   0  0  2  0  0  0  0  0  0  0  0  0
   -1.1250   -0.0813    0.0000 C   0  0  0  0  0  0  0  0  0  0  0  0
   -1.4098   -0.8763    0.0000 C   0  0  0  0  0  0  0  0  0  0  0  0
   -0.1515   -0.7810    0.0000 C   0  0  2  0  0  0  0  0  0  0  0  0
    2.0191   -1.0426    0.0000 C   0  0  0  0  0  0  0  0  0  0  0  0
    0.3666    0.6455    0.0000 C   0  0  1  0  0  0  0  0  0  0  0  0
   -0.2948    0.1382    0.0000 C   0  0  2  0  0  0  0  0  0  0  0  0
    0.5487   -1.3456    0.0000 C   0  0  1  0  0  0  0  0  0  0  0  0
   -0.5935    1.9401    0.0000 N   0  0  0  0  0  0  0  0  0  0  0  0
   -2.3442   -1.9527    0.0000 O   0  0  0  0  0  0  0  0  0  0  0  0
    2.3025   -0.2901    0.0000 O   0  0  0  0  0  0  0  0  0  0  0  0
    0.5513   -2.1497    0.0000 O   0  0  0  0  0  0  0  0  0  0  0  0
   -0.7419   -1.3508    0.0000 O   0  0  0  0  0  0  0  0  0  0  0  0
    1.3966   -1.5528    0.0000 H   0  0  0  0  0  0  0  0  0  0  0  0
   -0.7231    0.3268    0.0000 H   0  0  0  0  0  0  0  0  0  0  0  0
   -0.9137   -0.5248    0.0000 H   0  0  0  0  0  0  0  0  0  0  0  0
  5  4  1  0  0  0  0
  7  6  2  0  0  0  0
  9  8  2  0  0  0  0
 11 10  1  0  0  0  0
 15  4  1  0  0  0  0
 15  5  1  0  0  0  0
 15 14  1  0  0  0  0
 16  6  1  0  0  0  0
 16 12  1  0  0  0  0
 17  7  1  0  0  0  0
 18 13  1  0  0  0  0
 19 12  1  0  0  0  0
 20 16  2  0  0  0  0
 21 17  2  0  0  0  0
 21 20  1  0  0  0  0
 23  1  1  0  0  0  0
 23  2  1  0  0  0  0
 18 23  1  6  0  0  0
 24  8  1  0  0  0  0
 24 13  1  1  0  0  0
 24 19  1  0  0  0  0
 25 10  1  0  0  0  0
 25 20  1  6  0  0  0
 25 22  1  0  0  0  0
 25 24  1  0  0  0  0
 26  9  1  0  0  0  0
 26 18  1  0  0  0  0
 26 22  1  0  0  0  0
 27 11  1  0  0  0  0
 27 14  1  0  0  0  0
 27 19  1  0  0  0  0
 28 17  1  0  0  0  0
 29 23  1  0  0  0  0
 30  3  1  0  0  0  0
 26 30  1  6  0  0  0
 31 21  1  0  0  0  0
 31 22  1  0  0  0  0
 18 32  1  1  0  0  0
 19 33  1  6  0  0  0
 22 34  1  1  0  0  0
M  END
> <DATABASE_ID>
DB01480

> <DATABASE_NAME>
drugbank

> <SMILES>
[H][C@@]12OC3=C(O)C=CC4=C3[C@@]11CCN(CC3CC3)[C@]([H])(C4)[C@@]11C[C@]([H])(C(C)(C)O)[C@]2(OC)C=C1

> <INCHI_IDENTIFIER>
InChI=1S/C26H33NO4/c1-23(2,29)18-13-24-8-9-26(18,30-3)22-25(24)10-11-27(14-15-4-5-15)19(24)12-16-6-7-17(28)21(31-22)20(16)25/h6-9,15,18-19,22,28-29H,4-5,10-14H2,1-3H3/t18-,19-,22-,24-,25+,26-/m1/s1

> <INCHI_KEY>
VSKIOMHXEUHYSI-KNLIIKEYSA-N

> <FORMULA>
C26H33NO4

> <MOLECULAR_WEIGHT>
423.553

> <EXACT_MASS>
423.240958547

> <JCHEM_ACCEPTOR_COUNT>
5

> <JCHEM_ATOM_COUNT>
64

> <JCHEM_AVERAGE_POLARIZABILITY>
46.87773849919992

> <JCHEM_BIOAVAILABILITY>
1

> <JCHEM_DONOR_COUNT>
2

> <JCHEM_FORMAL_CHARGE>
0

> <JCHEM_GHOSE_FILTER>
1

> <JCHEM_IUPAC>
(1R,2R,6S,14R,15R,19R)-3-(cyclopropylmethyl)-19-(2-hydroxypropan-2-yl)-15-methoxy-13-oxa-3-azahexacyclo[13.2.2.1²,⁸.0¹,⁶.0⁶,¹⁴.0⁷,¹²]icosa-7,9,11,16-tetraen-11-ol

> <ALOGPS_LOGP>
3.33

> <JCHEM_LOGP>
2.1339450445261208

> <ALOGPS_LOGS>
-3.86

> <JCHEM_MDDR_LIKE_RULE>
0

> <JCHEM_NUMBER_OF_RINGS>
7

> <JCHEM_PHYSIOLOGICAL_CHARGE>
1

> <JCHEM_PKA>
14.960924819301553

> <JCHEM_PKA_STRONGEST_ACIDIC>
10.353144039421164

> <JCHEM_PKA_STRONGEST_BASIC>
9.536700810440946

> <JCHEM_POLAR_SURFACE_AREA>
62.16000000000001

> <JCHEM_REFRACTIVITY>
119.3312

> <JCHEM_ROTATABLE_BOND_COUNT>
4

> <JCHEM_RULE_OF_FIVE>
1

> <ALOGPS_SOLUBILITY>
5.82e-02 g/l

> <JCHEM_TRADITIONAL_IUPAC>
cyprenorphine

> <JCHEM_VEBER_RULE>
0

> <DRUGBANK_ID>
DB01480

> <DRUG_GROUPS>
experimental; illicit

> <GENERIC_NAME>
Cyprenorphine

$$$$
1481
  Mrv0541 02231215312D          

 25 28  0  0  1  0            999 V2000
    7.1353    1.7429    0.0000 O   0  0  0  0  0  0  0  0  0  0  0  0
    1.6498   -1.8105    0.0000 O   0  0  0  0  0  0  0  0  0  0  0  0
    6.0985   -0.1176    0.0000 C   0  0  1  0  0  0  0  0  0  0  0  0
    5.3842   -0.5300    0.0000 C   0  0  1  0  0  0  0  0  0  0  0  0
    6.0985    0.7073    0.0000 C   0  0  2  0  0  0  0  0  0  0  0  0
    4.6697   -0.1176    0.0000 C   0  0  1  0  0  0  0  0  0  0  0  0
    3.9191   -0.5356    0.0000 C   0  0  1  0  0  0  0  0  0  0  0  0
    5.3842    1.1197    0.0000 C   0  0  0  0  0  0  0  0  0  0  0  0
    4.6697    0.7073    0.0000 C   0  0  0  0  0  0  0  0  0  0  0  0
    6.8790    0.9588    0.0000 C   0  0  2  0  0  0  0  0  0  0  0  0
    6.8790   -0.3689    0.0000 C   0  0  0  0  0  0  0  0  0  0  0  0
    5.3974   -1.3891    0.0000 C   0  0  0  0  0  0  0  0  0  0  0  0
    3.9125   -1.3948    0.0000 C   0  0  1  0  0  0  0  0  0  0  0  0
    7.3604    0.2949    0.0000 C   0  0  0  0  0  0  0  0  0  0  0  0
    4.6566   -1.8245    0.0000 C   0  0  0  0  0  0  0  0  0  0  0  0
    6.0985    1.5322    0.0000 C   0  0  0  0  0  0  0  0  0  0  0  0
    3.9254    0.2893    0.0000 C   0  0  0  0  0  0  0  0  0  0  0  0
    3.1546   -0.0703    0.0000 C   0  0  0  0  0  0  0  0  0  0  0  0
    3.1409   -1.8482    0.0000 C   0  0  0  0  0  0  0  0  0  0  0  0
    2.3726   -0.5058    0.0000 C   0  0  0  0  0  0  0  0  0  0  0  0
    2.3657   -1.4007    0.0000 C   0  0  0  0  0  0  0  0  0  0  0  0
    6.1683   -0.7738    0.0000 H   0  0  0  0  0  0  0  0  0  0  0  0
    5.9581   -0.8555    0.0000 H   0  0  0  0  0  0  0  0  0  0  0  0
    5.2413    0.2124    0.0000 H   0  0  0  0  0  0  0  0  0  0  0  0
    3.9150   -2.0547    0.0000 H   0  0  0  0  0  0  0  0  0  0  0  0
 10  1  1  1  0  0  0
  2 21  2  0  0  0  0
  3  4  1  0  0  0  0
  3  5  1  0  0  0  0
  3 11  1  0  0  0  0
  3 22  1  6  0  0  0
  4  6  1  0  0  0  0
  4 12  1  0  0  0  0
  4 23  1  1  0  0  0
  5  8  1  0  0  0  0
  5 10  1  0  0  0  0
  5 16  1  1  0  0  0
  6  7  1  0  0  0  0
  6  9  1  0  0  0  0
  6 24  1  6  0  0  0
  7 13  1  0  0  0  0
  7 17  1  1  0  0  0
  7 18  1  0  0  0  0
  8  9  1  0  0  0  0
 10 14  1  0  0  0  0
 11 14  1  0  0  0  0
 12 15  1  0  0  0  0
 13 15  1  0  0  0  0
 13 19  1  0  0  0  0
 13 25  1  6  0  0  0
 18 20  2  0  0  0  0
 19 21  1  0  0  0  0
 20 21  1  0  0  0  0
M  END
> <DATABASE_ID>
DB01481

> <DATABASE_NAME>
drugbank

> <SMILES>
[H][C@@]12CC[C@H](O)[C@@]1(C)CC[C@@]1([H])[C@@]2([H])CC[C@@]2([H])CC(=O)C=C[C@]12C

> <INCHI_IDENTIFIER>
InChI=1S/C19H28O2/c1-18-9-7-13(20)11-12(18)3-4-14-15-5-6-17(21)19(15,2)10-8-16(14)18/h7,9,12,14-17,21H,3-6,8,10-11H2,1-2H3/t12-,14-,15-,16-,17-,18-,19-/m0/s1

> <INCHI_KEY>
OKJCFMUGMSVJBG-ABEVXSGRSA-N

> <FORMULA>
C19H28O2

> <MOLECULAR_WEIGHT>
288.4244

> <EXACT_MASS>
288.20893014

> <JCHEM_ACCEPTOR_COUNT>
2

> <JCHEM_AVERAGE_POLARIZABILITY>
34.05784167128914

> <JCHEM_BIOAVAILABILITY>
1

> <JCHEM_DONOR_COUNT>
1

> <JCHEM_FORMAL_CHARGE>
0

> <JCHEM_GHOSE_FILTER>
1

> <JCHEM_IUPAC>
(1S,2R,7S,10R,11S,14S,15S)-14-hydroxy-2,15-dimethyltetracyclo[8.7.0.0²,⁷.0¹¹,¹⁵]heptadec-3-en-5-one

> <ALOGPS_LOGP>
3.38

> <JCHEM_LOGP>
3.4090811223333346

> <ALOGPS_LOGS>
-4.35

> <JCHEM_MDDR_LIKE_RULE>
0

> <JCHEM_NUMBER_OF_RINGS>
4

> <JCHEM_PHYSIOLOGICAL_CHARGE>
0

> <JCHEM_PKA_STRONGEST_ACIDIC>
19.377705257051634

> <JCHEM_PKA_STRONGEST_BASIC>
-0.883949950359319

> <JCHEM_POLAR_SURFACE_AREA>
37.3

> <JCHEM_REFRACTIVITY>
84.69639999999998

> <JCHEM_ROTATABLE_BOND_COUNT>
0

> <JCHEM_RULE_OF_FIVE>
1

> <ALOGPS_SOLUBILITY>
1.28e-02 g/l

> <JCHEM_TRADITIONAL_IUPAC>
1-testosterone

> <JCHEM_VEBER_RULE>
1

> <DRUGBANK_ID>
DB01481

> <DRUG_GROUPS>
experimental; illicit; investigational

> <GENERIC_NAME>
1-Testosterone

> <SYNONYMS>
1-T; 1-Testo; 17beta-hydroxy-5alpha-androst-1-en-3-one; Androstendolone; delta1-Dihydrotestosterone

$$$$
1483
  Mrv0541 02231215312D          

 13 13  0  0  0  0            999 V2000
    1.6500    0.5231    0.0000 O   0  0  0  0  0  0  0  0  0  0  0  0
    4.5080    0.5231    0.0000 O   0  0  0  0  0  0  0  0  0  0  0  0
    3.0791   -1.9520    0.0000 O   0  0  0  0  0  0  0  0  0  0  0  0
    2.3645   -0.7145    0.0000 N   0  0  0  0  0  0  0  0  0  0  0  0
    3.7935   -0.7145    0.0000 N   0  0  0  0  0  0  0  0  0  0  0  0
    3.0791    0.5231    0.0000 C   0  0  0  0  0  0  0  0  0  0  0  0
    2.6665    1.2375    0.0000 C   0  0  0  0  0  0  0  0  0  0  0  0
    3.4916    1.2375    0.0000 C   0  0  0  0  0  0  0  0  0  0  0  0
    2.3645    0.1106    0.0000 C   0  0  0  0  0  0  0  0  0  0  0  0
    3.7935    0.1106    0.0000 C   0  0  0  0  0  0  0  0  0  0  0  0
    1.8415    1.2375    0.0000 C   0  0  0  0  0  0  0  0  0  0  0  0
    3.0791    1.9520    0.0000 C   0  0  0  0  0  0  0  0  0  0  0  0
    3.0791   -1.1270    0.0000 C   0  0  0  0  0  0  0  0  0  0  0  0
  1  9  2  0  0  0  0
  2 10  2  0  0  0  0
  3 13  2  0  0  0  0
  4  9  1  0  0  0  0
  4 13  1  0  0  0  0
  5 10  1  0  0  0  0
  5 13  1  0  0  0  0
  6  7  1  0  0  0  0
  6  8  1  0  0  0  0
  6  9  1  0  0  0  0
  6 10  1  0  0  0  0
  7 11  1  0  0  0  0
  8 12  1  0  0  0  0
M  END
> <DATABASE_ID>
DB01483

> <DATABASE_NAME>
drugbank

> <SMILES>
CCC1(CC)C(=O)NC(=O)NC1=O

> <INCHI_IDENTIFIER>
InChI=1S/C8H12N2O3/c1-3-8(4-2)5(11)9-7(13)10-6(8)12/h3-4H2,1-2H3,(H2,9,10,11,12,13)

> <INCHI_KEY>
FTOAOBMCPZCFFF-UHFFFAOYSA-N

> <FORMULA>
C8H12N2O3

> <MOLECULAR_WEIGHT>
184.1925

> <EXACT_MASS>
184.08479226

> <JCHEM_ACCEPTOR_COUNT>
3

> <JCHEM_AVERAGE_POLARIZABILITY>
17.58663940013044

> <JCHEM_BIOAVAILABILITY>
1

> <JCHEM_DONOR_COUNT>
2

> <JCHEM_FORMAL_CHARGE>
0

> <JCHEM_GHOSE_FILTER>
1

> <JCHEM_IUPAC>
5,5-diethyl-1,3-diazinane-2,4,6-trione

> <ALOGPS_LOGP>
0.73

> <JCHEM_LOGP>
0.7170948203333329

> <ALOGPS_LOGS>
-1.76

> <JCHEM_MDDR_LIKE_RULE>
0

> <JCHEM_NUMBER_OF_RINGS>
1

> <JCHEM_PHYSIOLOGICAL_CHARGE>
0

> <JCHEM_PKA>
12.15497437943283

> <JCHEM_PKA_STRONGEST_ACIDIC>
8.48485175059001

> <JCHEM_POLAR_SURFACE_AREA>
75.27

> <JCHEM_REFRACTIVITY>
44.25229999999999

> <JCHEM_ROTATABLE_BOND_COUNT>
2

> <JCHEM_RULE_OF_FIVE>
1

> <ALOGPS_SOLUBILITY>
3.23e+00 g/l

> <JCHEM_TRADITIONAL_IUPAC>
barbital

> <JCHEM_VEBER_RULE>
0

> <DRUGBANK_ID>
DB01483

> <DRUG_GROUPS>
illicit

> <GENERIC_NAME>
Barbital

$$$$
1484
  Mrv0541 02231215312D          

 15 15  0  0  1  0            999 V2000
    3.7935   -2.3967    0.0000 Br  0  0  0  0  0  0  0  0  0  0  0  0
    2.3645    0.0784    0.0000 O   0  0  0  0  0  0  0  0  0  0  0  0
    5.2224   -1.5717    0.0000 O   0  0  0  0  0  0  0  0  0  0  0  0
    4.5080    2.1409    0.0000 N   0  0  0  0  0  0  0  0  0  0  0  0
    3.7935    0.9034    0.0000 C   0  0  0  0  0  0  0  0  0  0  0  0
    4.5080    1.3159    0.0000 C   0  0  0  0  0  0  0  0  0  0  0  0
    3.7935    0.0784    0.0000 C   0  0  0  0  0  0  0  0  0  0  0  0
    3.0791   -0.3341    0.0000 C   0  0  0  0  0  0  0  0  0  0  0  0
    5.2224    0.9034    0.0000 C   0  0  0  0  0  0  0  0  0  0  0  0
    4.5080   -0.3341    0.0000 C   0  0  0  0  0  0  0  0  0  0  0  0
    4.5080   -1.1592    0.0000 C   0  0  0  0  0  0  0  0  0  0  0  0
    3.0791   -1.1592    0.0000 C   0  0  0  0  0  0  0  0  0  0  0  0
    3.7935   -1.5717    0.0000 C   0  0  0  0  0  0  0  0  0  0  0  0
    1.6500   -0.3341    0.0000 C   0  0  0  0  0  0  0  0  0  0  0  0
    5.9370   -1.1592    0.0000 C   0  0  0  0  0  0  0  0  0  0  0  0
  1 13  1  0  0  0  0
  2  8  1  0  0  0  0
  2 14  1  0  0  0  0
  3 11  1  0  0  0  0
  3 15  1  0  0  0  0
  4  6  1  0  0  0  0
  5  6  1  0  0  0  0
  5  7  1  0  0  0  0
  6  9  1  0  0  0  0
  7  8  1  0  0  0  0
  7 10  2  0  0  0  0
  8 12  2  0  0  0  0
 10 11  1  0  0  0  0
 11 13  2  0  0  0  0
 12 13  1  0  0  0  0
M  END
> <DATABASE_ID>
DB01484

> <DATABASE_NAME>
drugbank

> <SMILES>
COC1=CC(Br)=C(OC)C=C1CC(C)N

> <INCHI_IDENTIFIER>
InChI=1S/C11H16BrNO2/c1-7(13)4-8-5-11(15-3)9(12)6-10(8)14-2/h5-7H,4,13H2,1-3H3

> <INCHI_KEY>
FXMWUTGUCAKGQL-UHFFFAOYSA-N

> <FORMULA>
C11H16BrNO2

> <MOLECULAR_WEIGHT>
274.154

> <EXACT_MASS>
273.036441408

> <JCHEM_ACCEPTOR_COUNT>
3

> <JCHEM_AVERAGE_POLARIZABILITY>
25.282172027734592

> <JCHEM_BIOAVAILABILITY>
1

> <JCHEM_DONOR_COUNT>
1

> <JCHEM_FORMAL_CHARGE>
0

> <JCHEM_GHOSE_FILTER>
1

> <JCHEM_IUPAC>
1-(4-bromo-2,5-dimethoxyphenyl)propan-2-amine

> <ALOGPS_LOGP>
2.53

> <JCHEM_LOGP>
2.257660575666666

> <ALOGPS_LOGS>
-3.46

> <JCHEM_MDDR_LIKE_RULE>
0

> <JCHEM_NUMBER_OF_RINGS>
1

> <JCHEM_PHYSIOLOGICAL_CHARGE>
1

> <JCHEM_PKA_STRONGEST_BASIC>
9.90423213112654

> <JCHEM_POLAR_SURFACE_AREA>
44.480000000000004

> <JCHEM_REFRACTIVITY>
64.2544

> <JCHEM_ROTATABLE_BOND_COUNT>
4

> <JCHEM_RULE_OF_FIVE>
1

> <ALOGPS_SOLUBILITY>
9.48e-02 g/l

> <JCHEM_TRADITIONAL_IUPAC>
dob-4

> <JCHEM_VEBER_RULE>
0

> <DRUGBANK_ID>
DB01484

> <DRUG_GROUPS>
experimental; illicit

> <GENERIC_NAME>
4-Bromo-2,5-dimethoxyamphetamine

$$$$

  Mrv1902 04091915432D          

 25 28  0  0  0  0            999 V2000
   -2.0578   -0.1019    0.0000 C   0  0  0  0  0  0  0  0  0  0  0  0
   -2.0578   -0.9280    0.0000 C   0  0  0  0  0  0  0  0  0  0  0  0
   -1.3448   -1.3368    0.0000 C   0  0  0  0  0  0  0  0  0  0  0  0
   -1.3448    0.3152    0.0000 C   0  0  0  0  0  0  0  0  0  0  0  0
   -0.6319   -0.1019    0.0000 C   0  0  1  0  0  0  0  0  0  0  0  0
   -0.6309   -0.9280    0.0000 C   0  0  0  0  0  0  0  0  0  0  0  0
    0.0810   -1.3379    0.0000 C   0  0  0  0  0  0  0  0  0  0  0  0
    0.7963   -0.9262    0.0000 C   0  0  0  0  0  0  0  0  0  0  0  0
    0.0789    0.3142    0.0000 C   0  0  2  0  0  0  0  0  0  0  0  0
    0.7910   -0.1024    0.0000 C   0  0  2  0  0  0  0  0  0  0  0  0
    0.7989    1.5449    0.0000 C   0  0  0  0  0  0  0  0  0  0  0  0
    0.0797    1.1370    0.0000 C   0  0  0  0  0  0  0  0  0  0  0  0
    1.5109    1.1281    0.0000 C   0  0  1  0  0  0  0  0  0  0  0  0
    1.5074    0.3073    0.0000 C   0  0  1  0  0  0  0  0  0  0  0  0
    2.2871    0.0500    0.0000 C   0  0  0  0  0  0  0  0  0  0  0  0
    2.7725    0.7121    0.0000 C   0  0  0  0  0  0  0  0  0  0  0  0
    2.2929    1.3784    0.0000 C   0  0  2  0  0  0  0  0  0  0  0  0
   -1.3450   -2.1629    0.0000 O   0  0  0  0  0  0  0  0  0  0  0  0
   -2.7725   -1.3421    0.0000 O   0  0  0  0  0  0  0  0  0  0  0  0
   -0.6393    0.7240    0.0000 C   0  0  0  0  0  0  0  0  0  0  0  0
    0.7832    0.7240    0.0000 H   0  0  0  0  0  0  0  0  0  0  0  0
    0.0740   -0.5108    0.0000 H   0  0  0  0  0  0  0  0  0  0  0  0
    1.5007   -0.5149    0.0000 H   0  0  0  0  0  0  0  0  0  0  0  0
    1.5049    1.9547    0.0000 C   0  0  0  0  0  0  0  0  0  0  0  0
    2.5518    2.1629    0.0000 O   0  0  0  0  0  0  0  0  0  0  0  0
  1  2  1  0  0  0  0
  1  4  1  0  0  0  0
  2  3  1  0  0  0  0
  3  6  2  0  0  0  0
  5  4  1  0  0  0  0
  5  6  1  0  0  0  0
  5  9  1  0  0  0  0
  6  7  1  0  0  0  0
  7  8  1  0  0  0  0
  8 10  1  0  0  0  0
  9 10  1  0  0  0  0
  9 12  1  0  0  0  0
 10 14  1  0  0  0  0
 13 11  1  0  0  0  0
 11 12  1  0  0  0  0
 13 14  1  0  0  0  0
 14 15  1  0  0  0  0
 15 16  1  0  0  0  0
 16 17  1  0  0  0  0
 17 13  1  0  0  0  0
  3 18  1  0  0  0  0
  2 19  2  0  0  0  0
  5 20  1  1  0  0  0
 10 21  1  1  0  0  0
  9 22  1  6  0  0  0
 14 23  1  6  0  0  0
 13 24  1  1  0  0  0
 17 25  1  1  0  0  0
M  END
> <DATABASE_ID>
DB01485

> <DATABASE_NAME>
drugbank

> <SMILES>
[H][C@@]12CC[C@H](O)[C@@]1(C)CC[C@@]1([H])[C@@]2([H])CCC2=C(O)C(=O)CC[C@]12C

> <INCHI_IDENTIFIER>
InChI=1S/C19H28O3/c1-18-10-8-15(20)17(22)14(18)4-3-11-12-5-6-16(21)19(12,2)9-7-13(11)18/h11-13,16,21-22H,3-10H2,1-2H3/t11-,12-,13-,16-,18+,19-/m0/s1

> <INCHI_KEY>
BQOIJSIMMIDHMO-FBPKJDBXSA-N

> <FORMULA>
C19H28O3

> <MOLECULAR_WEIGHT>
304.43

> <EXACT_MASS>
304.203844762

> <JCHEM_ACCEPTOR_COUNT>
3

> <JCHEM_ATOM_COUNT>
50

> <JCHEM_AVERAGE_POLARIZABILITY>
34.733044491892144

> <JCHEM_BIOAVAILABILITY>
1

> <JCHEM_DONOR_COUNT>
2

> <JCHEM_FORMAL_CHARGE>
0

> <JCHEM_GHOSE_FILTER>
1

> <JCHEM_IUPAC>
(1S,3aS,3bR,9aR,9bS,11aS)-1,6-dihydroxy-9a,11a-dimethyl-1H,2H,3H,3aH,3bH,4H,5H,7H,8H,9H,9aH,9bH,10H,11H,11aH-cyclopenta[a]phenanthren-7-one

> <ALOGPS_LOGP>
2.48

> <JCHEM_LOGP>
2.846765616333334

> <ALOGPS_LOGS>
-3.65

> <JCHEM_MDDR_LIKE_RULE>
0

> <JCHEM_NUMBER_OF_RINGS>
4

> <JCHEM_PHYSIOLOGICAL_CHARGE>
0

> <JCHEM_PKA>
19.377705208100718

> <JCHEM_PKA_STRONGEST_ACIDIC>
9.283947715347164

> <JCHEM_PKA_STRONGEST_BASIC>
-0.8839907302035628

> <JCHEM_POLAR_SURFACE_AREA>
57.53

> <JCHEM_REFRACTIVITY>
86.39719999999998

> <JCHEM_ROTATABLE_BOND_COUNT>
0

> <JCHEM_RULE_OF_FIVE>
1

> <ALOGPS_SOLUBILITY>
6.80e-02 g/l

> <JCHEM_TRADITIONAL_IUPAC>
4-hydroxytestosterone

> <JCHEM_VEBER_RULE>
0

> <DRUGBANK_ID>
DB01485

> <DRUG_GROUPS>
experimental; illicit

> <GENERIC_NAME>
4-Hydroxytestosterone

> <SYNONYMS>
4-Androstene-7alpha-17beta-diol-3-one; 4,17beta-Dihydroxy-4-androstene-3-one; 7alpha-Hydroxytestosterone

$$$$

  Mrv1909 01072021412D          

 11 11  0  0  0  0            999 V2000
    1.4288    1.2375    0.0000 C   0  0  0  0  0  0  0  0  0  0  0  0
    0.7145    0.8250    0.0000 C   0  0  0  0  0  0  0  0  0  0  0  0
    0.7145    0.0000    0.0000 C   0  0  0  0  0  0  0  0  0  0  0  0
    1.4288   -0.4125    0.0000 C   0  0  0  0  0  0  0  0  0  0  0  0
    2.1433    0.0000    0.0000 C   0  0  0  0  0  0  0  0  0  0  0  0
    2.1433    0.8250    0.0000 C   0  0  0  0  0  0  0  0  0  0  0  0
    0.0000   -0.4125    0.0000 C   0  0  1  0  0  0  0  0  0  0  0  0
   -0.7145    0.0000    0.0000 C   0  0  1  0  0  0  0  0  0  0  0  0
   -1.4288   -0.4125    0.0000 N   0  0  0  0  0  0  0  0  0  0  0  0
   -0.7145    0.8249    0.0000 C   0  0  0  0  0  0  0  0  0  0  0  0
    0.0000   -1.2375    0.0000 O   0  0  0  0  0  0  0  0  0  0  0  0
  1  2  1  0  0  0  0
  1  6  2  0  0  0  0
  2  3  2  0  0  0  0
  3  4  1  0  0  0  0
  4  5  2  0  0  0  0
  5  6  1  0  0  0  0
  3  7  1  0  0  0  0
  7  8  1  0  0  0  0
  8  9  1  0  0  0  0
  8 10  1  1  0  0  0
  7 11  1  6  0  0  0
M  END
> <DATABASE_ID>
DB01486

> <DATABASE_NAME>
drugbank

> <SMILES>
C[C@H](N)[C@@H](O)C1=CC=CC=C1

> <INCHI_IDENTIFIER>
InChI=1S/C9H13NO/c1-7(10)9(11)8-5-3-2-4-6-8/h2-7,9,11H,10H2,1H3/t7-,9+/m0/s1

> <INCHI_KEY>
DLNKOYKMWOXYQA-IONNQARKSA-N

> <FORMULA>
C9H13NO

> <MOLECULAR_WEIGHT>
151.2056

> <EXACT_MASS>
151.099714043

> <JCHEM_ACCEPTOR_COUNT>
2

> <JCHEM_ATOM_COUNT>
24

> <JCHEM_AVERAGE_NEUTRAL_MICROSPECIES_CHARGE>
1.000143257917779

> <JCHEM_AVERAGE_POLARIZABILITY>
16.879087228892672

> <JCHEM_BIOAVAILABILITY>
1

> <JCHEM_DONOR_COUNT>
2

> <JCHEM_FORMAL_CHARGE>
0

> <JCHEM_GHOSE_FILTER>
0

> <JCHEM_IUPAC>
(1S,2S)-2-amino-1-phenylpropan-1-ol

> <ALOGPS_LOGP>
0.57

> <JCHEM_LOGP>
0.8852543346666666

> <ALOGPS_LOGS>
-0.87

> <JCHEM_MDDR_LIKE_RULE>
0

> <JCHEM_NEUTRAL_CHARGE>
1

> <JCHEM_NUMBER_OF_RINGS>
1

> <JCHEM_PHYSIOLOGICAL_CHARGE>
1

> <JCHEM_PKA_STRONGEST_ACIDIC>
13.896164133633944

> <JCHEM_PKA_STRONGEST_BASIC>
9.370138989147625

> <JCHEM_POLAR_SURFACE_AREA>
46.25

> <JCHEM_REFRACTIVITY>
44.912699999999994

> <JCHEM_ROTATABLE_BOND_COUNT>
2

> <JCHEM_RULE_OF_FIVE>
1

> <ALOGPS_SOLUBILITY>
2.06e+01 g/l

> <JCHEM_TRADITIONAL_IUPAC>
cathine

> <JCHEM_VEBER_RULE>
0

> <DRUGBANK_ID>
DB01486

> <DRUG_GROUPS>
experimental; illicit

> <GENERIC_NAME>
Cathine

> <SYNONYMS>
(+)-Norpseudoephedrine; Cathina; Cathine; Cathinum; D-Cathine; d-Nor-psi-ephedrine; d-Norpseudoephedrine; Katine; Pseudonorephedrine; psi-Norephedrine

$$$$
1487
  Mrv0541 02231215312D          

 21 21  0  0  0  0            999 V2000
    1.6500   -3.2217    0.0000 O   0  0  0  0  0  0  0  0  0  0  0  0
    3.0791    1.7284    0.0000 O   0  0  0  0  0  0  0  0  0  0  0  0
    5.2224    3.7910    0.0000 O   0  0  0  0  0  0  0  0  0  0  0  0
    3.7935    0.4909    0.0000 N   0  0  0  0  0  0  0  0  0  0  0  0
    3.0791   -0.7466    0.0000 C   0  0  0  0  0  0  0  0  0  0  0  0
    3.9041   -0.7466    0.0000 C   0  0  0  0  0  0  0  0  0  0  0  0
    2.2540   -0.7466    0.0000 C   0  0  0  0  0  0  0  0  0  0  0  0
    3.0791    0.0784    0.0000 C   0  0  0  0  0  0  0  0  0  0  0  0
    3.0791   -1.5717    0.0000 C   0  0  0  0  0  0  0  0  0  0  0  0
    4.3166   -1.4611    0.0000 C   0  0  0  0  0  0  0  0  0  0  0  0
    1.8415   -0.0322    0.0000 C   0  0  0  0  0  0  0  0  0  0  0  0
    2.3645   -1.9842    0.0000 C   0  0  0  0  0  0  0  0  0  0  0  0
    3.7935   -1.9842    0.0000 C   0  0  0  0  0  0  0  0  0  0  0  0
    3.7935    1.3159    0.0000 C   0  0  0  0  0  0  0  0  0  0  0  0
    2.3645   -2.8092    0.0000 C   0  0  0  0  0  0  0  0  0  0  0  0
    3.7935   -2.8092    0.0000 C   0  0  0  0  0  0  0  0  0  0  0  0
    4.5080    1.7284    0.0000 C   0  0  0  0  0  0  0  0  0  0  0  0
    3.0791   -3.2217    0.0000 C   0  0  0  0  0  0  0  0  0  0  0  0
    4.5080    2.5534    0.0000 C   0  0  0  0  0  0  0  0  0  0  0  0
    5.2224    2.9659    0.0000 C   0  0  0  0  0  0  0  0  0  0  0  0
    1.6500   -4.0467    0.0000 C   0  0  0  0  0  0  0  0  0  0  0  0
  1 15  1  0  0  0  0
  1 21  1  0  0  0  0
  2 14  2  0  0  0  0
  3 20  1  0  0  0  0
  4  8  1  0  0  0  0
  4 14  1  0  0  0  0
  5  6  1  0  0  0  0
  5  7  1  0  0  0  0
  5  8  1  0  0  0  0
  5  9  1  0  0  0  0
  6 10  1  0  0  0  0
  7 11  1  0  0  0  0
  9 12  2  0  0  0  0
  9 13  1  0  0  0  0
 12 15  1  0  0  0  0
 13 16  2  0  0  0  0
 14 17  1  0  0  0  0
 15 18  2  0  0  0  0
 16 18  1  0  0  0  0
 17 19  1  0  0  0  0
 19 20  1  0  0  0  0
M  END
> <DATABASE_ID>
DB01487

> <DATABASE_NAME>
drugbank

> <SMILES>
CCC(CC)(CNC(=O)CCCO)C1=CC(OC)=CC=C1

> <INCHI_IDENTIFIER>
InChI=1S/C17H27NO3/c1-4-17(5-2,13-18-16(20)10-7-11-19)14-8-6-9-15(12-14)21-3/h6,8-9,12,19H,4-5,7,10-11,13H2,1-3H3,(H,18,20)

> <INCHI_KEY>
LMBMDLOSPKIWAP-UHFFFAOYSA-N

> <FORMULA>
C17H27NO3

> <MOLECULAR_WEIGHT>
293.4012

> <EXACT_MASS>
293.199093735

> <JCHEM_ACCEPTOR_COUNT>
3

> <JCHEM_AVERAGE_POLARIZABILITY>
33.93461266486641

> <JCHEM_BIOAVAILABILITY>
1

> <JCHEM_DONOR_COUNT>
2

> <JCHEM_FORMAL_CHARGE>
0

> <JCHEM_GHOSE_FILTER>
1

> <JCHEM_IUPAC>
N-[2-ethyl-2-(3-methoxyphenyl)butyl]-4-hydroxybutanamide

> <ALOGPS_LOGP>
2.98

> <JCHEM_LOGP>
2.3893876959999996

> <ALOGPS_LOGS>
-3.85

> <JCHEM_MDDR_LIKE_RULE>
0

> <JCHEM_NUMBER_OF_RINGS>
1

> <JCHEM_PHYSIOLOGICAL_CHARGE>
0

> <JCHEM_PKA>
16.25275050081188

> <JCHEM_PKA_STRONGEST_ACIDIC>
15.626393017868423

> <JCHEM_PKA_STRONGEST_BASIC>
-0.06236279882040463

> <JCHEM_POLAR_SURFACE_AREA>
58.56

> <JCHEM_REFRACTIVITY>
84.42170000000002

> <JCHEM_ROTATABLE_BOND_COUNT>
9

> <JCHEM_RULE_OF_FIVE>
1

> <ALOGPS_SOLUBILITY>
4.17e-02 g/l

> <JCHEM_TRADITIONAL_IUPAC>
embutramide

> <JCHEM_VEBER_RULE>
0

> <DRUGBANK_ID>
DB01487

> <SECONDARY_ACCESSION_NUMBERS>
DB11402

> <DRUG_GROUPS>
experimental; illicit

> <GENERIC_NAME>
Embutramide

> <SYNONYMS>
Embutramid

$$$$
1488
  Mrv0541 02231215312D          

 14 15  0  0  0  0            999 V2000
    5.1796    1.4693    0.0000 N   0  0  0  0  0  0  0  0  0  0  0  0
    3.8597   -1.5972    0.0000 N   0  0  0  0  0  0  0  0  0  0  0  0
    4.1160    0.5149    0.0000 C   0  0  0  0  0  0  0  0  0  0  0  0
    3.8597   -0.2693    0.0000 C   0  0  0  0  0  0  0  0  0  0  0  0
    4.9233    0.6851    0.0000 C   0  0  0  0  0  0  0  0  0  0  0  0
    3.0791   -0.5207    0.0000 C   0  0  0  0  0  0  0  0  0  0  0  0
    3.0791   -1.3457    0.0000 C   0  0  0  0  0  0  0  0  0  0  0  0
    4.3412   -0.9332    0.0000 C   0  0  0  0  0  0  0  0  0  0  0  0
    2.3645   -0.1082    0.0000 C   0  0  0  0  0  0  0  0  0  0  0  0
    2.3645   -1.7582    0.0000 C   0  0  0  0  0  0  0  0  0  0  0  0
    5.9869    1.6394    0.0000 C   0  0  0  0  0  0  0  0  0  0  0  0
    4.6286    2.0834    0.0000 C   0  0  0  0  0  0  0  0  0  0  0  0
    1.6501   -0.5207    0.0000 C   0  0  0  0  0  0  0  0  0  0  0  0
    1.6501   -1.3457    0.0000 C   0  0  0  0  0  0  0  0  0  0  0  0
  1  5  1  0  0  0  0
  1 11  1  0  0  0  0
  1 12  1  0  0  0  0
  2  7  1  0  0  0  0
  2  8  1  0  0  0  0
  3  4  1  0  0  0  0
  3  5  1  0  0  0  0
  4  6  1  0  0  0  0
  4  8  2  0  0  0  0
  6  7  1  0  0  0  0
  6  9  2  0  0  0  0
  7 10  2  0  0  0  0
  9 13  1  0  0  0  0
 10 14  1  0  0  0  0
 13 14  2  0  0  0  0
M  END
> <DATABASE_ID>
DB01488

> <DATABASE_NAME>
drugbank

> <SMILES>
CN(C)CCC1=CNC2=CC=CC=C12

> <INCHI_IDENTIFIER>
InChI=1S/C12H16N2/c1-14(2)8-7-10-9-13-12-6-4-3-5-11(10)12/h3-6,9,13H,7-8H2,1-2H3

> <INCHI_KEY>
DMULVCHRPCFFGV-UHFFFAOYSA-N

> <FORMULA>
C12H16N2

> <MOLECULAR_WEIGHT>
188.2688

> <EXACT_MASS>
188.131348522

> <JCHEM_ACCEPTOR_COUNT>
1

> <JCHEM_AVERAGE_POLARIZABILITY>
22.317037319867836

> <JCHEM_BIOAVAILABILITY>
1

> <JCHEM_DONOR_COUNT>
1

> <JCHEM_FORMAL_CHARGE>
0

> <JCHEM_GHOSE_FILTER>
1

> <JCHEM_IUPAC>
[2-(1H-indol-3-yl)ethyl]dimethylamine

> <ALOGPS_LOGP>
2.41

> <JCHEM_LOGP>
2.3020657809999996

> <ALOGPS_LOGS>
-2.05

> <JCHEM_MDDR_LIKE_RULE>
0

> <JCHEM_NUMBER_OF_RINGS>
2

> <JCHEM_PHYSIOLOGICAL_CHARGE>
1

> <JCHEM_PKA_STRONGEST_ACIDIC>
17.16497386926707

> <JCHEM_PKA_STRONGEST_BASIC>
9.547277133939458

> <JCHEM_POLAR_SURFACE_AREA>
19.03

> <JCHEM_REFRACTIVITY>
60.442200000000014

> <JCHEM_ROTATABLE_BOND_COUNT>
3

> <JCHEM_RULE_OF_FIVE>
1

> <ALOGPS_SOLUBILITY>
1.69e+00 g/l

> <JCHEM_TRADITIONAL_IUPAC>
(psychogenic)

> <JCHEM_VEBER_RULE>
1

> <DRUGBANK_ID>
DB01488

> <DRUG_GROUPS>
experimental; illicit

> <GENERIC_NAME>
Dimethyltryptamine

> <SYNONYMS>
2-(3-indolyl)ethyldimethylamine; 3-(2-dimethylaminoethyl)indole; 3-[2-(dimethylamino)ethyl]indole; DMT; N,N-dimethyl-1H-indole-3-ethylamine; N,N-dimethyltryptamine

$$$$
1489
  Mrv0541 02231215312D          

 26 28  0  0  1  0            999 V2000
    2.8172   -3.1025    0.0000 Cl  0  0  0  0  0  0  0  0  0  0  0  0
    4.1516    1.6159    0.0000 O   0  0  0  0  0  0  0  0  0  0  0  0
    2.6107    1.6159    0.0000 O   0  0  0  0  0  0  0  0  0  0  0  0
    5.4391    0.9959    0.0000 O   0  0  0  0  0  0  0  0  0  0  0  0
    2.4543    0.2276    0.0000 N   0  0  0  0  0  0  0  0  0  0  0  0
    4.3081    0.2276    0.0000 N   0  0  0  0  0  0  0  0  0  0  0  0
    5.3323    2.4209    0.0000 N   0  0  0  0  0  0  0  0  0  0  0  0
    2.6379   -0.5767    0.0000 C   0  0  0  0  0  0  0  0  0  0  0  0
    3.3812   -0.9346    0.0000 C   0  0  0  0  0  0  0  0  0  0  0  0
    4.1245   -0.5767    0.0000 C   0  0  0  0  0  0  0  0  0  0  0  0
    3.7937    0.8726    0.0000 C   0  0  0  0  0  0  0  0  0  0  0  0
    2.9687    0.8726    0.0000 C   0  0  0  0  0  0  0  0  0  0  0  0
    4.7695   -1.0911    0.0000 C   0  0  0  0  0  0  0  0  0  0  0  0
    1.9205   -1.0498    0.0000 C   0  0  0  0  0  0  0  0  0  0  0  0
    3.4586   -1.7905    0.0000 C   0  0  0  0  0  0  0  0  0  0  0  0
    1.6500    0.4112    0.0000 C   0  0  0  0  0  0  0  0  0  0  0  0
    1.9781   -1.9072    0.0000 C   0  0  0  0  0  0  0  0  0  0  0  0
    2.7524   -2.2801    0.0000 C   0  0  0  0  0  0  0  0  0  0  0  0
    5.5375   -0.7897    0.0000 C   0  0  0  0  0  0  0  0  0  0  0  0
    4.6466   -1.9069    0.0000 C   0  0  0  0  0  0  0  0  0  0  0  0
    6.1825   -1.3041    0.0000 C   0  0  0  0  0  0  0  0  0  0  0  0
    5.2915   -2.4213    0.0000 C   0  0  0  0  0  0  0  0  0  0  0  0
    4.9743    1.6776    0.0000 C   0  0  0  0  0  0  0  0  0  0  0  0
    6.0595   -2.1198    0.0000 C   0  0  0  0  0  0  0  0  0  0  0  0
    6.1550    2.4825    0.0000 C   0  0  0  0  0  0  0  0  0  0  0  0
    4.8676    3.1025    0.0000 C   0  0  0  0  0  0  0  0  0  0  0  0
  1 18  1  0  0  0  0
  2 11  1  0  0  0  0
  2 23  1  0  0  0  0
  3 12  2  0  0  0  0
  4 23  2  0  0  0  0
  5  8  1  0  0  0  0
  5 12  1  0  0  0  0
  5 16  1  0  0  0  0
  6 10  2  0  0  0  0
  6 11  1  0  0  0  0
  7 23  1  0  0  0  0
  7 25  1  0  0  0  0
  7 26  1  0  0  0  0
  8  9  2  0  0  0  0
  8 14  1  0  0  0  0
  9 10  1  0  0  0  0
  9 15  1  0  0  0  0
 10 13  1  0  0  0  0
 11 12  1  0  0  0  0
 13 19  2  0  0  0  0
 13 20  1  0  0  0  0
 14 17  2  0  0  0  0
 15 18  2  0  0  0  0
 17 18  1  0  0  0  0
 19 21  1  0  0  0  0
 20 22  2  0  0  0  0
 21 24  2  0  0  0  0
 22 24  1  0  0  0  0
M  END
> <DATABASE_ID>
DB01489

> <DATABASE_NAME>
drugbank

> <SMILES>
CN(C)C(=O)OC1N=C(C2=CC=CC=C2)C2=C(C=CC(Cl)=C2)N(C)C1=O

> <INCHI_IDENTIFIER>
InChI=1S/C19H18ClN3O3/c1-22(2)19(25)26-17-18(24)23(3)15-10-9-13(20)11-14(15)16(21-17)12-7-5-4-6-8-12/h4-11,17H,1-3H3

> <INCHI_KEY>
PXBVEXGRHZFEOF-UHFFFAOYSA-N

> <FORMULA>
C19H18ClN3O3

> <MOLECULAR_WEIGHT>
371.818

> <EXACT_MASS>
371.103669164

> <JCHEM_ACCEPTOR_COUNT>
3

> <JCHEM_AVERAGE_POLARIZABILITY>
38.05206880006148

> <JCHEM_BIOAVAILABILITY>
1

> <JCHEM_DONOR_COUNT>
0

> <JCHEM_FORMAL_CHARGE>
0

> <JCHEM_GHOSE_FILTER>
1

> <JCHEM_IUPAC>
7-chloro-1-methyl-2-oxo-5-phenyl-2,3-dihydro-1H-1,4-benzodiazepin-3-yl N,N-dimethylcarbamate

> <ALOGPS_LOGP>
2.48

> <JCHEM_LOGP>
3.3422788883333334

> <ALOGPS_LOGS>
-4.31

> <JCHEM_MDDR_LIKE_RULE>
0

> <JCHEM_NUMBER_OF_RINGS>
3

> <JCHEM_PHYSIOLOGICAL_CHARGE>
0

> <JCHEM_PKA_STRONGEST_BASIC>
-1.6538528375664105

> <JCHEM_POLAR_SURFACE_AREA>
62.21000000000001

> <JCHEM_REFRACTIVITY>
98.63190000000003

> <JCHEM_ROTATABLE_BOND_COUNT>
3

> <JCHEM_RULE_OF_FIVE>
1

> <ALOGPS_SOLUBILITY>
1.82e-02 g/l

> <JCHEM_TRADITIONAL_IUPAC>
camazepam

> <JCHEM_VEBER_RULE>
0

> <DRUGBANK_ID>
DB01489

> <DRUG_GROUPS>
experimental; illicit

> <GENERIC_NAME>
Camazepam

> <INTERNATIONAL_BRANDS>
Albego; Limpidon; Paxor

$$$$
1490
  Mrv0541 02231215312D          

 12 13  0  0  1  0            999 V2000
    2.3888    0.5203    0.0000 O   0  0  0  0  0  0  0  0  0  0  0  0
    3.4687    1.3049    0.0000 N   0  0  0  0  0  0  0  0  0  0  0  0
    2.1587    1.9724    0.0000 N   0  0  0  0  0  0  0  0  0  0  0  0
    3.0562    0.0354    0.0000 C   0  0  0  0  0  0  0  0  0  0  0  0
    3.7236    0.5203    0.0000 C   0  0  0  0  0  0  0  0  0  0  0  0
    3.0562   -0.7896    0.0000 C   0  0  0  0  0  0  0  0  0  0  0  0
    3.7707   -1.2021    0.0000 C   0  0  0  0  0  0  0  0  0  0  0  0
    2.3417   -1.2021    0.0000 C   0  0  0  0  0  0  0  0  0  0  0  0
    2.6437    1.3049    0.0000 C   0  0  0  0  0  0  0  0  0  0  0  0
    3.7707   -2.0272    0.0000 C   0  0  0  0  0  0  0  0  0  0  0  0
    2.3417   -2.0272    0.0000 C   0  0  0  0  0  0  0  0  0  0  0  0
    3.0562   -2.4397    0.0000 C   0  0  0  0  0  0  0  0  0  0  0  0
  1  4  1  0  0  0  0
  1  9  1  0  0  0  0
  2  5  1  0  0  0  0
  2  9  2  0  0  0  0
  3  9  1  0  0  0  0
  4  5  1  0  0  0  0
  4  6  1  0  0  0  0
  6  7  2  0  0  0  0
  6  8  1  0  0  0  0
  7 10  1  0  0  0  0
  8 11  2  0  0  0  0
 10 12  2  0  0  0  0
 11 12  1  0  0  0  0
M  END
> <DATABASE_ID>
DB01490

> <DATABASE_NAME>
drugbank

> <SMILES>
NC1=NCC(O1)C1=CC=CC=C1

> <INCHI_IDENTIFIER>
InChI=1S/C9H10N2O/c10-9-11-6-8(12-9)7-4-2-1-3-5-7/h1-5,8H,6H2,(H2,10,11)

> <INCHI_KEY>
SYAKTDIEAPMBAL-UHFFFAOYSA-N

> <FORMULA>
C9H10N2O

> <MOLECULAR_WEIGHT>
162.1885

> <EXACT_MASS>
162.079312952

> <JCHEM_ACCEPTOR_COUNT>
3

> <JCHEM_AVERAGE_POLARIZABILITY>
16.97139341763501

> <JCHEM_BIOAVAILABILITY>
1

> <JCHEM_DONOR_COUNT>
1

> <JCHEM_FORMAL_CHARGE>
0

> <JCHEM_GHOSE_FILTER>
1

> <JCHEM_IUPAC>
5-phenyl-4,5-dihydro-1,3-oxazol-2-amine

> <ALOGPS_LOGP>
1.16

> <JCHEM_LOGP>
1.462155631

> <ALOGPS_LOGS>
-2.31

> <JCHEM_MDDR_LIKE_RULE>
0

> <JCHEM_NUMBER_OF_RINGS>
2

> <JCHEM_PHYSIOLOGICAL_CHARGE>
1

> <JCHEM_PKA_STRONGEST_ACIDIC>
19.475702892408744

> <JCHEM_PKA_STRONGEST_BASIC>
7.493234967205886

> <JCHEM_POLAR_SURFACE_AREA>
47.61

> <JCHEM_REFRACTIVITY>
45.74810000000001

> <JCHEM_ROTATABLE_BOND_COUNT>
1

> <JCHEM_RULE_OF_FIVE>
1

> <ALOGPS_SOLUBILITY>
7.92e-01 g/l

> <JCHEM_TRADITIONAL_IUPAC>
aminorex

> <JCHEM_VEBER_RULE>
0

> <DRUGBANK_ID>
DB01490

> <DRUG_GROUPS>
experimental; illicit

> <GENERIC_NAME>
Aminorex

> <SYNONYMS>
Aminorex; Aminorexum

> <INTERNATIONAL_BRANDS>
Apiquel

$$$$
1491
  Mrv0541 02231215312D          

 26 28  0  0  1  0            999 V2000
    6.5270    0.7144    0.0000 O   0  0  0  0  0  0  0  0  0  0  0  0
    3.0572   -0.2482    0.0000 N   0  0  0  0  0  0  0  0  0  0  0  0
    3.6892    0.2822    0.0000 C   0  0  0  0  0  0  0  0  0  0  0  0
    4.4645    0.0000    0.0000 C   0  0  0  0  0  0  0  0  0  0  0  0
    5.2895    0.0000    0.0000 C   0  0  0  0  0  0  0  0  0  0  0  0
    2.2820    0.0341    0.0000 C   0  0  0  0  0  0  0  0  0  0  0  0
    3.2004   -1.0605    0.0000 C   0  0  0  0  0  0  0  0  0  0  0  0
    1.6500   -0.4962    0.0000 C   0  0  0  0  0  0  0  0  0  0  0  0
    2.5685   -1.5908    0.0000 C   0  0  0  0  0  0  0  0  0  0  0  0
    1.7932   -1.3087    0.0000 C   0  0  0  0  0  0  0  0  0  0  0  0
    3.5459    1.0946    0.0000 C   0  0  0  0  0  0  0  0  0  0  0  0
    5.2895   -0.8250    0.0000 C   0  0  0  0  0  0  0  0  0  0  0  0
    5.2895    0.8250    0.0000 C   0  0  0  0  0  0  0  0  0  0  0  0
    6.1145    0.0000    0.0000 C   0  0  0  0  0  0  0  0  0  0  0  0
    6.5270   -0.7144    0.0000 C   0  0  0  0  0  0  0  0  0  0  0  0
    6.0039   -1.2375    0.0000 C   0  0  0  0  0  0  0  0  0  0  0  0
    4.5750    1.2375    0.0000 C   0  0  0  0  0  0  0  0  0  0  0  0
    4.5750   -1.2375    0.0000 C   0  0  0  0  0  0  0  0  0  0  0  0
    6.0039    1.2375    0.0000 C   0  0  0  0  0  0  0  0  0  0  0  0
    7.3520   -0.7144    0.0000 C   0  0  0  0  0  0  0  0  0  0  0  0
    6.0039   -2.0625    0.0000 C   0  0  0  0  0  0  0  0  0  0  0  0
    4.5750    2.0625    0.0000 C   0  0  0  0  0  0  0  0  0  0  0  0
    4.5750   -2.0625    0.0000 C   0  0  0  0  0  0  0  0  0  0  0  0
    6.0039    2.0625    0.0000 C   0  0  0  0  0  0  0  0  0  0  0  0
    5.2895   -2.4750    0.0000 C   0  0  0  0  0  0  0  0  0  0  0  0
    5.2895    2.4750    0.0000 C   0  0  0  0  0  0  0  0  0  0  0  0
  1 14  2  0  0  0  0
  2  3  1  0  0  0  0
  2  6  1  0  0  0  0
  2  7  1  0  0  0  0
  3  4  1  0  0  0  0
  3 11  1  0  0  0  0
  4  5  1  0  0  0  0
  5 12  1  0  0  0  0
  5 13  1  0  0  0  0
  5 14  1  0  0  0  0
  6  8  1  0  0  0  0
  7  9  1  0  0  0  0
  8 10  1  0  0  0  0
  9 10  1  0  0  0  0
 12 16  2  0  0  0  0
 12 18  1  0  0  0  0
 13 17  2  0  0  0  0
 13 19  1  0  0  0  0
 14 15  1  0  0  0  0
 15 20  1  0  0  0  0
 16 21  1  0  0  0  0
 17 22  1  0  0  0  0
 18 23  2  0  0  0  0
 19 24  2  0  0  0  0
 21 25  2  0  0  0  0
 22 26  2  0  0  0  0
 23 25  1  0  0  0  0
 24 26  1  0  0  0  0
M  END
> <DATABASE_ID>
DB01491

> <DATABASE_NAME>
drugbank

> <SMILES>
CCC(=O)C(CC(C)N1CCCCC1)(C1=CC=CC=C1)C1=CC=CC=C1

> <INCHI_IDENTIFIER>
InChI=1S/C24H31NO/c1-3-23(26)24(21-13-7-4-8-14-21,22-15-9-5-10-16-22)19-20(2)25-17-11-6-12-18-25/h4-5,7-10,13-16,20H,3,6,11-12,17-19H2,1-2H3

> <INCHI_KEY>
SVDHSZFEQYXRDC-UHFFFAOYSA-N

> <FORMULA>
C24H31NO

> <MOLECULAR_WEIGHT>
349.509

> <EXACT_MASS>
349.240564619

> <JCHEM_ACCEPTOR_COUNT>
2

> <JCHEM_AVERAGE_POLARIZABILITY>
41.56512813714387

> <JCHEM_BIOAVAILABILITY>
1

> <JCHEM_DONOR_COUNT>
0

> <JCHEM_FORMAL_CHARGE>
0

> <JCHEM_GHOSE_FILTER>
0

> <JCHEM_IUPAC>
4,4-diphenyl-6-(piperidin-1-yl)heptan-3-one

> <ALOGPS_LOGP>
5.28

> <JCHEM_LOGP>
5.857537767

> <ALOGPS_LOGS>
-5.66

> <JCHEM_MDDR_LIKE_RULE>
1

> <JCHEM_NUMBER_OF_RINGS>
3

> <JCHEM_PHYSIOLOGICAL_CHARGE>
1

> <JCHEM_PKA_STRONGEST_ACIDIC>
18.7736323294111

> <JCHEM_PKA_STRONGEST_BASIC>
9.296745264052856

> <JCHEM_POLAR_SURFACE_AREA>
20.310000000000002

> <JCHEM_REFRACTIVITY>
109.41090000000003

> <JCHEM_ROTATABLE_BOND_COUNT>
7

> <JCHEM_RULE_OF_FIVE>
0

> <ALOGPS_SOLUBILITY>
7.57e-04 g/l

> <JCHEM_TRADITIONAL_IUPAC>
dipipanone

> <JCHEM_VEBER_RULE>
1

> <DRUGBANK_ID>
DB01491

> <DRUG_GROUPS>
experimental; illicit

> <GENERIC_NAME>
Dipipanone

$$$$
1494
  Mrv0541 02231215312D          

 15 13  0  0  0  0            999 V2000
    0.3572    0.3020    0.0000 Cl  0  0  0  0  0  0  0  0  0  0  0  0
    0.6592    1.4290    0.0000 Cl  0  0  0  0  0  0  0  0  0  0  0  0
    1.4842    0.0000    0.0000 Cl  0  0  0  0  0  0  0  0  0  0  0  0
    3.3009    5.4278    0.0000 O   0  5  0  0  0  0  0  0  0  0  0  0
    2.5864    4.1903    0.0000 O   0  0  0  0  0  0  0  0  0  0  0  0
    2.5007    0.7145    0.0000 O   0  0  0  0  0  0  0  0  0  0  0  0
    1.7862    1.9520    0.0000 O   0  0  0  0  0  0  0  0  0  0  0  0
    1.1575    5.0153    0.0000 N   0  3  0  0  0  0  0  0  0  0  0  0
    1.8720    5.4278    0.0000 C   0  0  0  0  0  0  0  0  0  0  0  0
    1.5700    4.3008    0.0000 C   0  0  0  0  0  0  0  0  0  0  0  0
    0.7450    5.7298    0.0000 C   0  0  0  0  0  0  0  0  0  0  0  0
    0.4430    4.6028    0.0000 C   0  0  0  0  0  0  0  0  0  0  0  0
    2.5864    5.0153    0.0000 C   0  0  0  0  0  0  0  0  0  0  0  0
    1.7862    1.1270    0.0000 C   0  0  0  0  0  0  0  0  0  0  0  0
    1.0717    0.7145    0.0000 C   0  0  0  0  0  0  0  0  0  0  0  0
  1 15  1  0  0  0  0
  2 15  1  0  0  0  0
  3 15  1  0  0  0  0
  4 13  1  0  0  0  0
  5 13  2  0  0  0  0
  6 14  1  0  0  0  0
  7 14  1  0  0  0  0
  8  9  1  0  0  0  0
  8 10  1  0  0  0  0
  8 11  1  0  0  0  0
  8 12  1  0  0  0  0
  9 13  1  0  0  0  0
 14 15  1  0  0  0  0
M  CHG  2   4  -1   8   1
M  END
> <DATABASE_ID>
DB01494

> <DATABASE_NAME>
drugbank

> <SMILES>
OC(O)C(Cl)(Cl)Cl.C[N+](C)(C)CC([O-])=O

> <INCHI_IDENTIFIER>
InChI=1S/C5H11NO2.C2H3Cl3O2/c1-6(2,3)4-5(7)8;3-2(4,5)1(6)7/h4H2,1-3H3;1,6-7H

> <INCHI_KEY>
ONAOIDNSINNZOA-UHFFFAOYSA-N

> <FORMULA>
C7H14Cl3NO4

> <MOLECULAR_WEIGHT>
282.549

> <EXACT_MASS>
280.998841062

> <JCHEM_ACCEPTOR_COUNT>
2

> <JCHEM_AVERAGE_POLARIZABILITY>
12.112893521461935

> <JCHEM_BIOAVAILABILITY>
1

> <JCHEM_DONOR_COUNT>
0

> <JCHEM_FORMAL_CHARGE>
0

> <JCHEM_GHOSE_FILTER>
0

> <JCHEM_IUPAC>
2,2,2-trichloroethane-1,1-diol 2-(trimethylazaniumyl)acetate

> <JCHEM_LOGP>
-4.494183842471745

> <JCHEM_MDDR_LIKE_RULE>
0

> <JCHEM_NUMBER_OF_RINGS>
0

> <JCHEM_PHYSIOLOGICAL_CHARGE>
0

> <JCHEM_PKA_STRONGEST_ACIDIC>
2.2595637800263866

> <JCHEM_POLAR_SURFACE_AREA>
40.129999999999995

> <JCHEM_REFRACTIVITY>
52.8234

> <JCHEM_ROTATABLE_BOND_COUNT>
3

> <JCHEM_RULE_OF_FIVE>
1

> <JCHEM_TRADITIONAL_IUPAC>
Bet; chloral hydrate

> <JCHEM_VEBER_RULE>
0

> <DRUGBANK_ID>
DB01494

> <DRUG_GROUPS>
illicit; withdrawn

> <GENERIC_NAME>
Chloral betaine

> <SYNONYMS>
Cloral betaine

> <INTERNATIONAL_BRANDS>
Beta-ChIor

$$$$

  Mrv1718009051818402D          

 28 27  0  0  0  0            999 V2000
   -0.8794    0.7161    0.0000 C   0  0  0  0  0  0  0  0  0  0  0  0
   -1.5445    0.2756    0.0000 N   0  0  0  0  0  0  0  0  0  0  0  0
   -2.2125    0.7686    0.0000 N   0  0  0  0  0  0  0  0  0  0  0  0
   -1.1157    1.5270    0.0000 C   0  0  0  0  0  0  0  0  0  0  0  0
   -1.9500    1.5358    0.0000 C   0  0  0  0  0  0  0  0  0  0  0  0
    1.8595    0.9757    0.0000 C   0  0  0  0  0  0  0  0  0  0  0  0
    1.9528   -1.2994    0.0000 C   0  0  0  0  0  0  0  0  0  0  0  0
    2.3904    1.2819    0.0000 C   0  0  0  0  0  0  0  0  0  0  0  0
    2.4808   -0.9932    0.0000 C   0  0  0  0  0  0  0  0  0  0  0  0
   -0.0919    0.4331    0.0000 O   0  0  0  0  0  0  0  0  0  0  0  0
   -1.5445   -0.5615    0.0000 C   0  0  0  0  0  0  0  0  0  0  0  0
    1.3519    0.8356    0.0000 Cl  0  0  0  0  0  0  0  0  0  0  0  0
    1.3257    1.2819    0.0000 Cl  0  0  0  0  0  0  0  0  0  0  0  0
    1.8595    0.3631    0.0000 Cl  0  0  0  0  0  0  0  0  0  0  0  0
    1.4219   -0.9932    0.0000 Cl  0  0  0  0  0  0  0  0  0  0  0  0
    1.9528   -1.9120    0.0000 Cl  0  0  0  0  0  0  0  0  0  0  0  0
    1.4657   -1.3752    0.0000 Cl  0  0  0  0  0  0  0  0  0  0  0  0
   -3.0146    0.5148    0.0000 C   0  0  0  0  0  0  0  0  0  0  0  0
    2.3904    1.8945    0.0000 O   0  0  0  0  0  0  0  0  0  0  0  0
    2.9183    0.9757    0.0000 O   0  0  0  0  0  0  0  0  0  0  0  0
    3.0146   -1.2994    0.0000 O   0  0  0  0  0  0  0  0  0  0  0  0
    2.4808   -0.3806    0.0000 O   0  0  0  0  0  0  0  0  0  0  0  0
   -2.4370    2.2270    0.0000 C   0  0  0  0  0  0  0  0  0  0  0  0
   -0.8211   -0.9582    0.0000 C   0  0  0  0  0  0  0  0  0  0  0  0
   -2.2445   -0.9902    0.0000 C   0  0  0  0  0  0  0  0  0  0  0  0
   -0.8036   -1.7895    0.0000 C   0  0  0  0  0  0  0  0  0  0  0  0
   -2.2300   -1.8333    0.0000 C   0  0  0  0  0  0  0  0  0  0  0  0
   -1.5270   -2.2270    0.0000 C   0  0  0  0  0  0  0  0  0  0  0  0
  2  1  1  0  0  0  0
  3  2  1  0  0  0  0
  4  1  1  0  0  0  0
  5  4  2  0  0  0  0
  8  6  1  0  0  0  0
  9  7  1  0  0  0  0
 10  1  2  0  0  0  0
 11  2  1  0  0  0  0
 12  6  1  0  0  0  0
 13  6  1  0  0  0  0
 14  6  1  0  0  0  0
 15  7  1  0  0  0  0
 16  7  1  0  0  0  0
 17  7  1  0  0  0  0
 18  3  1  0  0  0  0
 19  8  1  0  0  0  0
 20  8  1  0  0  0  0
 21  9  1  0  0  0  0
 22  9  1  0  0  0  0
 23  5  1  0  0  0  0
 24 11  2  0  0  0  0
 25 11  1  0  0  0  0
 26 24  1  0  0  0  0
 27 25  2  0  0  0  0
 28 27  1  0  0  0  0
  3  5  1  0  0  0  0
 26 28  2  0  0  0  0
M  END
> <DATABASE_ID>
DB01495

> <DATABASE_NAME>
drugbank

> <SMILES>
OC(O)C(Cl)(Cl)Cl.OC(O)C(Cl)(Cl)Cl.CN1N(C(=O)C=C1C)C1=CC=CC=C1

> <INCHI_IDENTIFIER>
InChI=1S/C11H12N2O.2C2H3Cl3O2/c1-9-8-11(14)13(12(9)2)10-6-4-3-5-7-10;2*3-2(4,5)1(6)7/h3-8H,1-2H3;2*1,6-7H

> <INCHI_KEY>
ATKXDQOHNICLQW-UHFFFAOYSA-N

> <FORMULA>
C15H18Cl6N2O5

> <MOLECULAR_WEIGHT>
519.032

> <EXACT_MASS>
515.934687938

> <JCHEM_ACCEPTOR_COUNT>
2

> <JCHEM_ATOM_COUNT>
46

> <JCHEM_AVERAGE_POLARIZABILITY>
20.404499721279922

> <JCHEM_BIOAVAILABILITY>
1

> <JCHEM_DONOR_COUNT>
0

> <JCHEM_FORMAL_CHARGE>
0

> <JCHEM_GHOSE_FILTER>
0

> <JCHEM_IUPAC>
1,5-dimethyl-2-phenyl-2,3-dihydro-1H-pyrazol-3-one; bis(2,2,2-trichloroethane-1,1-diol)

> <ALOGPS_LOGP>
1.18

> <JCHEM_LOGP>
1.2189718436666666

> <ALOGPS_LOGS>
-0.60

> <JCHEM_MDDR_LIKE_RULE>
0

> <JCHEM_NUMBER_OF_RINGS>
2

> <JCHEM_PHYSIOLOGICAL_CHARGE>
0

> <JCHEM_PKA_STRONGEST_BASIC>
0.48597519414203333

> <JCHEM_POLAR_SURFACE_AREA>
23.55

> <JCHEM_REFRACTIVITY>
56.41680000000002

> <JCHEM_ROTATABLE_BOND_COUNT>
3

> <JCHEM_RULE_OF_FIVE>
0

> <ALOGPS_SOLUBILITY>
4.74e+01 g/l

> <JCHEM_TRADITIONAL_IUPAC>
dichloralphenazone

> <JCHEM_VEBER_RULE>
1

> <DRUGBANK_ID>
DB01495

> <DRUG_GROUPS>
approved; illicit

> <GENERIC_NAME>
Dichloralphenazone

> <PRODUCTS>
Isometheptene Mucate, Dichloralphenazone, and Acetaminophen; Isometheptene Mucate/Dichloralphenazone/Acetaminophen; Isometheptene-Dichloral-APAP Oral; LarkaDrin; Nodolor

$$$$
1496
  Mrv0541 02231215312D          

 25 27  0  0  0  0            999 V2000
    5.1753   -2.6608    0.0000 S   0  0  0  0  0  0  0  0  0  0  0  0
    3.6172    0.5757    0.0000 F   0  0  0  0  0  0  0  0  0  0  0  0
    4.7065    0.1576    0.0000 F   0  0  0  0  0  0  0  0  0  0  0  0
    5.1246    1.2468    0.0000 F   0  0  0  0  0  0  0  0  0  0  0  0
    2.9849    0.2991    0.0000 O   0  0  0  0  0  0  0  0  0  0  0  0
    2.3174   -2.6608    0.0000 O   0  0  0  0  0  0  0  0  0  0  0  0
    3.7464   -0.1858    0.0000 O   0  0  0  0  0  0  0  0  0  0  0  0
    3.7464   -2.6608    0.0000 N   0  0  0  0  0  0  0  0  0  0  0  0
    4.4609   -1.4233    0.0000 N   0  0  0  0  0  0  0  0  0  0  0  0
    3.0319   -1.4233    0.0000 C   0  0  0  0  0  0  0  0  0  0  0  0
    2.3174   -1.0108    0.0000 C   0  0  0  0  0  0  0  0  0  0  0  0
    2.3174   -0.1858    0.0000 C   0  0  0  0  0  0  0  0  0  0  0  0
    3.0319   -2.2483    0.0000 C   0  0  0  0  0  0  0  0  0  0  0  0
    3.7464   -1.0108    0.0000 C   0  0  0  0  0  0  0  0  0  0  0  0
    2.7299    1.0837    0.0000 C   0  0  0  0  0  0  0  0  0  0  0  0
    1.6500    0.2991    0.0000 C   0  0  0  0  0  0  0  0  0  0  0  0
    3.2149    1.7512    0.0000 C   0  0  0  0  0  0  0  0  0  0  0  0
    1.9049    1.0837    0.0000 C   0  0  0  0  0  0  0  0  0  0  0  0
    4.0353    1.6649    0.0000 C   0  0  0  0  0  0  0  0  0  0  0  0
    4.4609   -2.2483    0.0000 C   0  0  0  0  0  0  0  0  0  0  0  0
    2.8793    2.5049    0.0000 C   0  0  0  0  0  0  0  0  0  0  0  0
    4.5203    2.3324    0.0000 C   0  0  0  0  0  0  0  0  0  0  0  0
    4.3710    0.9113    0.0000 C   0  0  0  0  0  0  0  0  0  0  0  0
    3.3643    3.1723    0.0000 C   0  0  0  0  0  0  0  0  0  0  0  0
    4.1848    3.0861    0.0000 C   0  0  0  0  0  0  0  0  0  0  0  0
  1 20  2  0  0  0  0
  2 23  1  0  0  0  0
  3 23  1  0  0  0  0
  4 23  1  0  0  0  0
  5 12  1  0  0  0  0
  5 15  1  0  0  0  0
  6 13  2  0  0  0  0
  7 14  2  0  0  0  0
  8 13  1  0  0  0  0
  8 20  1  0  0  0  0
  9 14  1  0  0  0  0
  9 20  1  0  0  0  0
 10 11  1  0  0  0  0
 10 13  1  0  0  0  0
 10 14  1  0  0  0  0
 11 12  1  0  0  0  0
 12 16  2  0  0  0  0
 15 17  1  0  0  0  0
 15 18  2  0  0  0  0
 16 18  1  0  0  0  0
 17 19  1  0  0  0  0
 17 21  2  0  0  0  0
 19 22  2  0  0  0  0
 19 23  1  0  0  0  0
 21 24  1  0  0  0  0
 22 25  1  0  0  0  0
 24 25  2  0  0  0  0
M  END
> <DATABASE_ID>
DB01496

> <DATABASE_NAME>
drugbank

> <SMILES>
FC(F)(F)C1=CC=CC=C1C1=CC=C(CC2C(=O)NC(=S)NC2=O)O1

> <INCHI_IDENTIFIER>
InChI=1S/C16H11F3N2O3S/c17-16(18,19)11-4-2-1-3-9(11)12-6-5-8(24-12)7-10-13(22)20-15(25)21-14(10)23/h1-6,10H,7H2,(H2,20,21,22,23,25)

> <INCHI_KEY>
DNZPLHRZXUJATK-UHFFFAOYSA-N

> <FORMULA>
C16H11F3N2O3S

> <MOLECULAR_WEIGHT>
368.33

> <EXACT_MASS>
368.044247533

> <JCHEM_ACCEPTOR_COUNT>
2

> <JCHEM_AVERAGE_POLARIZABILITY>
31.653519160575947

> <JCHEM_BIOAVAILABILITY>
1

> <JCHEM_DONOR_COUNT>
2

> <JCHEM_FORMAL_CHARGE>
0

> <JCHEM_GHOSE_FILTER>
1

> <JCHEM_IUPAC>
2-sulfanylidene-5-({5-[2-(trifluoromethyl)phenyl]furan-2-yl}methyl)-1,3-diazinane-4,6-dione

> <ALOGPS_LOGP>
3.19

> <JCHEM_LOGP>
3.0895995616666663

> <ALOGPS_LOGS>
-4.25

> <JCHEM_MDDR_LIKE_RULE>
0

> <JCHEM_NUMBER_OF_RINGS>
3

> <JCHEM_PHYSIOLOGICAL_CHARGE>
-1

> <JCHEM_PKA>
9.746302717482395

> <JCHEM_PKA_STRONGEST_ACIDIC>
3.4149047289588204

> <JCHEM_PKA_STRONGEST_BASIC>
-2.8423454592954536

> <JCHEM_POLAR_SURFACE_AREA>
71.34

> <JCHEM_REFRACTIVITY>
86.7685

> <JCHEM_ROTATABLE_BOND_COUNT>
4

> <JCHEM_RULE_OF_FIVE>
1

> <ALOGPS_SOLUBILITY>
2.06e-02 g/l

> <JCHEM_TRADITIONAL_IUPAC>
barbituric acid derivative

> <JCHEM_VEBER_RULE>
0

> <DRUGBANK_ID>
DB01496

> <DRUG_GROUPS>
experimental; illicit

> <GENERIC_NAME>
Dihydro-2-thioxo-5-((5-(2-(trifluoromethyl)phenyl)-2-furanyl)methyl)-4,6(1H,5H)-pyrimidinedione

$$$$

  Mrv0541 02231215312D          

 31 36  0  0  1  0            999 V2000
    4.3078   -1.1907    0.0000 O   0  0  0  0  0  0  0  0  0  0  0  0
    6.3944   -1.3621    0.0000 O   0  0  0  0  0  0  0  0  0  0  0  0
    4.6437   -1.7207    0.0000 O   0  0  0  0  0  0  0  0  0  0  0  0
    2.2396   -1.3621    0.0000 O   0  0  0  0  0  0  0  0  0  0  0  0
    5.1420    2.2361    0.0000 N   0  0  0  0  0  0  0  0  0  0  0  0
    4.7295    0.0927    0.0000 C   0  0  1  0  0  0  0  0  0  0  0  0
    5.1420    0.8072    0.0000 C   0  0  1  0  0  0  0  0  0  0  0  0
    5.1420   -0.6218    0.0000 C   0  0  0  0  0  0  0  0  0  0  0  0
    5.9670   -0.6218    0.0000 C   0  0  0  0  0  0  0  0  0  0  0  0
    4.7295    1.5217    0.0000 C   0  0  1  0  0  0  0  0  0  0  0  0
    5.7378    0.4227    0.0000 C   0  0  0  0  0  0  0  0  0  0  0  0
    5.4262   -0.2006    0.0000 C   0  0  0  0  0  0  0  0  0  0  0  0
    4.3171    0.8072    0.0000 C   0  0  0  0  0  0  0  0  0  0  0  0
    3.9045    0.0927    0.0000 C   0  0  0  0  0  0  0  0  0  0  0  0
    5.9670    0.8072    0.0000 C   0  0  0  0  0  0  0  0  0  0  0  0
    3.9045    1.5217    0.0000 C   0  0  0  0  0  0  0  0  0  0  0  0
    6.3796    0.0927    0.0000 C   0  0  0  0  0  0  0  0  0  0  0  0
    4.3078    2.3844    0.0000 C   0  0  0  0  0  0  0  0  0  0  0  0
    5.0349   -0.9606    0.0000 C   0  0  0  0  0  0  0  0  0  0  0  0
    3.4920    0.8072    0.0000 C   0  0  0  0  0  0  0  0  0  0  0  0
    3.4920   -0.6218    0.0000 C   0  0  0  0  0  0  0  0  0  0  0  0
    5.7951   -1.3519    0.0000 C   0  0  0  0  0  0  0  0  0  0  0  0
    5.9170    2.5968    0.0000 C   0  0  0  0  0  0  0  0  0  0  0  0
    2.6670    0.8072    0.0000 C   0  0  0  0  0  0  0  0  0  0  0  0
    4.2749   -0.5695    0.0000 C   0  0  0  0  0  0  0  0  0  0  0  0
    2.6670   -0.6218    0.0000 C   0  0  0  0  0  0  0  0  0  0  0  0
    2.2545    0.0927    0.0000 C   0  0  0  0  0  0  0  0  0  0  0  0
    7.2492   -1.3621    0.0000 C   0  0  0  0  0  0  0  0  0  0  0  0
    5.8363   -2.2057    0.0000 C   0  0  0  0  0  0  0  0  0  0  0  0
    6.5964   -2.5968    0.0000 C   0  0  0  0  0  0  0  0  0  0  0  0
    5.3701    1.2821    0.0000 H   0  0  0  0  0  0  0  0  0  0  0  0
  1  8  1  0  0  0  0
  1 21  1  0  0  0  0
  2  9  1  0  0  0  0
  2 28  1  0  0  0  0
  3 19  1  0  0  0  0
  4 26  1  0  0  0  0
  5 10  1  0  0  0  0
  5 18  1  0  0  0  0
  5 23  1  0  0  0  0
  6  7  1  0  0  0  0
  6  8  1  0  0  0  0
  6 13  1  1  0  0  0
  6 14  1  0  0  0  0
  7 10  1  0  0  0  0
  7 11  1  1  0  0  0
  7 15  1  0  0  0  0
  8  9  1  0  0  0  0
  9 12  1  0  0  0  0
  9 17  1  0  0  0  0
 10 16  1  0  0  0  0
 10 31  1  6  0  0  0
 11 12  1  0  0  0  0
 12 19  1  0  0  0  0
 13 18  1  0  0  0  0
 14 20  2  0  0  0  0
 14 21  1  0  0  0  0
 15 17  2  0  0  0  0
 16 20  1  0  0  0  0
 19 22  1  0  0  0  0
 19 25  1  0  0  0  0
 20 24  1  0  0  0  0
 21 26  2  0  0  0  0
 22 29  1  0  0  0  0
 24 27  2  0  0  0  0
 26 27  1  0  0  0  0
 29 30  1  0  0  0  0
M  END
> <DATABASE_ID>
DB01497

> <DATABASE_NAME>
drugbank

> <SMILES>
[H][C@]12CC3=C4C(OC5[C@@]4(CCN1C)[C@]21CC(C(C)(O)CCC)C5(OC)C=C1)=C(O)C=C3

> <INCHI_IDENTIFIER>
InChI=1S/C25H33NO4/c1-5-8-22(2,28)17-14-23-9-10-25(17,29-4)21-24(23)11-12-26(3)18(23)13-15-6-7-16(27)20(30-21)19(15)24/h6-7,9-10,17-18,21,27-28H,5,8,11-14H2,1-4H3/t17?,18-,21?,22?,23-,24+,25?/m1/s1

> <INCHI_KEY>
CAHCBJPUTCKATP-HBDRVVKHSA-N

> <FORMULA>
C25H33NO4

> <MOLECULAR_WEIGHT>
411.5338

> <EXACT_MASS>
411.240958549

> <JCHEM_ACCEPTOR_COUNT>
5

> <JCHEM_AVERAGE_POLARIZABILITY>
45.55151531813403

> <JCHEM_BIOAVAILABILITY>
1

> <JCHEM_DONOR_COUNT>
2

> <JCHEM_FORMAL_CHARGE>
0

> <JCHEM_GHOSE_FILTER>
1

> <JCHEM_IUPAC>
(1R,2R,6S)-19-(2-hydroxypentan-2-yl)-15-methoxy-3-methyl-13-oxa-3-azahexacyclo[13.2.2.1²,⁸.0¹,⁶.0⁶,¹⁴.0⁷,¹²]icosa-7,9,11,16-tetraen-11-ol

> <ALOGPS_LOGP>
3.29

> <JCHEM_LOGP>
2.4724506300221814

> <ALOGPS_LOGS>
-3.56

> <JCHEM_MDDR_LIKE_RULE>
0

> <JCHEM_NUMBER_OF_RINGS>
6

> <JCHEM_PHYSIOLOGICAL_CHARGE>
1

> <JCHEM_PKA>
14.683286929100834

> <JCHEM_PKA_STRONGEST_ACIDIC>
7.483619119403368

> <JCHEM_PKA_STRONGEST_BASIC>
11.721090100606256

> <JCHEM_POLAR_SURFACE_AREA>
62.160000000000004

> <JCHEM_REFRACTIVITY>
116.5142

> <JCHEM_ROTATABLE_BOND_COUNT>
4

> <JCHEM_RULE_OF_FIVE>
1

> <ALOGPS_SOLUBILITY>
1.12e-01 g/l

> <JCHEM_TRADITIONAL_IUPAC>
etorphine

> <JCHEM_VEBER_RULE>
0

> <DRUGBANK_ID>
DB01497

> <DRUG_GROUPS>
illicit; vet_approved

> <GENERIC_NAME>
Etorphine

> <SYNONYMS>
etorfina; Etorphine; Etorphinum

> <SALTS>
Etorphine Hydrochloride

$$$$
1498
  Mrv0541 02231215312D          

 23 24  0  0  1  0            999 V2000
    5.8950    0.7144    0.0000 O   0  0  0  0  0  0  0  0  0  0  0  0
    2.4253    0.2482    0.0000 N   0  0  0  0  0  0  0  0  0  0  0  0
    4.6575    0.0000    0.0000 C   0  0  0  0  0  0  0  0  0  0  0  0
    3.8325    0.0000    0.0000 C   0  0  0  0  0  0  0  0  0  0  0  0
    5.4825    0.0000    0.0000 C   0  0  1  0  0  0  0  0  0  0  0  0
    3.0572   -0.2822    0.0000 C   0  0  1  0  0  0  0  0  0  0  0  0
    4.6575    0.8250    0.0000 C   0  0  0  0  0  0  0  0  0  0  0  0
    4.6575   -0.8250    0.0000 C   0  0  0  0  0  0  0  0  0  0  0  0
    5.8950   -0.7144    0.0000 C   0  0  0  0  0  0  0  0  0  0  0  0
    2.9141   -1.0947    0.0000 C   0  0  0  0  0  0  0  0  0  0  0  0
    3.9430    1.2375    0.0000 C   0  0  0  0  0  0  0  0  0  0  0  0
    5.3720   -1.2375    0.0000 C   0  0  0  0  0  0  0  0  0  0  0  0
    5.3720    1.2375    0.0000 C   0  0  0  0  0  0  0  0  0  0  0  0
    3.9430   -1.2375    0.0000 C   0  0  0  0  0  0  0  0  0  0  0  0
    6.7200   -0.7144    0.0000 C   0  0  0  0  0  0  0  0  0  0  0  0
    1.6500   -0.0340    0.0000 C   0  0  0  0  0  0  0  0  0  0  0  0
    2.5686    1.0607    0.0000 C   0  0  0  0  0  0  0  0  0  0  0  0
    3.9430    2.0625    0.0000 C   0  0  0  0  0  0  0  0  0  0  0  0
    5.3720   -2.0625    0.0000 C   0  0  0  0  0  0  0  0  0  0  0  0
    5.3720    2.0625    0.0000 C   0  0  0  0  0  0  0  0  0  0  0  0
    3.9430   -2.0625    0.0000 C   0  0  0  0  0  0  0  0  0  0  0  0
    4.6575    2.4750    0.0000 C   0  0  0  0  0  0  0  0  0  0  0  0
    4.6575   -2.4750    0.0000 C   0  0  0  0  0  0  0  0  0  0  0  0
  5  1  1  6  0  0  0
  6  2  1  1  0  0  0
  2 16  1  0  0  0  0
  2 17  1  0  0  0  0
  3  4  1  0  0  0  0
  3  5  1  0  0  0  0
  3  7  1  0  0  0  0
  3  8  1  0  0  0  0
  4  6  1  0  0  0  0
  5  9  1  0  0  0  0
  6 10  1  0  0  0  0
  7 11  2  0  0  0  0
  7 13  1  0  0  0  0
  8 12  2  0  0  0  0
  8 14  1  0  0  0  0
  9 15  1  0  0  0  0
 11 18  1  0  0  0  0
 12 19  1  0  0  0  0
 13 20  2  0  0  0  0
 14 21  2  0  0  0  0
 18 22  2  0  0  0  0
 19 23  2  0  0  0  0
 20 22  1  0  0  0  0
 21 23  1  0  0  0  0
M  END
> <DATABASE_ID>
DB01498

> <DATABASE_NAME>
drugbank

> <SMILES>
CC[C@@H](O)C(C[C@@H](C)N(C)C)(C1=CC=CC=C1)C1=CC=CC=C1

> <INCHI_IDENTIFIER>
InChI=1S/C21H29NO/c1-5-20(23)21(16-17(2)22(3)4,18-12-8-6-9-13-18)19-14-10-7-11-15-19/h6-15,17,20,23H,5,16H2,1-4H3/t17-,20-/m1/s1

> <INCHI_KEY>
QIRAYNIFEOXSPW-YLJYHZDGSA-N

> <FORMULA>
C21H29NO

> <MOLECULAR_WEIGHT>
311.4611

> <EXACT_MASS>
311.224914555

> <JCHEM_ACCEPTOR_COUNT>
2

> <JCHEM_AVERAGE_POLARIZABILITY>
36.88149256818383

> <JCHEM_BIOAVAILABILITY>
1

> <JCHEM_DONOR_COUNT>
1

> <JCHEM_FORMAL_CHARGE>
0

> <JCHEM_GHOSE_FILTER>
1

> <JCHEM_IUPAC>
(3R,6R)-6-(dimethylamino)-4,4-diphenylheptan-3-ol

> <ALOGPS_LOGP>
4.21

> <JCHEM_LOGP>
4.443643929666666

> <ALOGPS_LOGS>
-4.39

> <JCHEM_MDDR_LIKE_RULE>
0

> <JCHEM_NUMBER_OF_RINGS>
2

> <JCHEM_PHYSIOLOGICAL_CHARGE>
1

> <JCHEM_PKA_STRONGEST_ACIDIC>
14.52344800083879

> <JCHEM_PKA_STRONGEST_BASIC>
9.571360351013027

> <JCHEM_POLAR_SURFACE_AREA>
23.47

> <JCHEM_REFRACTIVITY>
108.70610000000002

> <JCHEM_ROTATABLE_BOND_COUNT>
7

> <JCHEM_RULE_OF_FIVE>
1

> <ALOGPS_SOLUBILITY>
1.28e-02 g/l

> <JCHEM_TRADITIONAL_IUPAC>
alphamethadol

> <JCHEM_VEBER_RULE>
1

> <DRUGBANK_ID>
DB01498

> <DRUG_GROUPS>
experimental; illicit

> <GENERIC_NAME>
Alphamethadol

$$$$
1499
  Mrv0541 02231215312D          

 20 21  0  0  1  0            999 V2000
    3.0573    0.6582    0.0000 O   0  0  0  0  0  0  0  0  0  0  0  0
    1.6500    0.9064    0.0000 O   0  0  0  0  0  0  0  0  0  0  0  0
    3.4698   -1.7063    0.0000 N   0  0  0  0  0  0  0  0  0  0  0  0
    3.4698   -0.0563    0.0000 C   0  0  1  0  0  0  0  0  0  0  0  0
    2.7553   -0.4688    0.0000 C   0  0  2  0  0  0  0  0  0  0  0  0
    4.1843   -0.4688    0.0000 C   0  0  0  0  0  0  0  0  0  0  0  0
    2.7553   -1.2938    0.0000 C   0  0  0  0  0  0  0  0  0  0  0  0
    4.1843   -1.2938    0.0000 C   0  0  0  0  0  0  0  0  0  0  0  0
    1.9428   -0.6121    0.0000 C   0  0  0  0  0  0  0  0  0  0  0  0
    3.8823    0.6582    0.0000 C   0  0  0  0  0  0  0  0  0  0  0  0
    3.4698   -2.5313    0.0000 C   0  0  0  0  0  0  0  0  0  0  0  0
    1.6606   -1.3873    0.0000 C   0  0  0  0  0  0  0  0  0  0  0  0
    3.4698    1.3727    0.0000 C   0  0  0  0  0  0  0  0  0  0  0  0
    4.7073    0.6582    0.0000 C   0  0  0  0  0  0  0  0  0  0  0  0
    2.4254    1.1886    0.0000 C   0  0  0  0  0  0  0  0  0  0  0  0
    3.8823    2.0872    0.0000 C   0  0  0  0  0  0  0  0  0  0  0  0
    5.1198    1.3727    0.0000 C   0  0  0  0  0  0  0  0  0  0  0  0
    2.5685    2.0010    0.0000 C   0  0  0  0  0  0  0  0  0  0  0  0
    4.7073    2.0872    0.0000 C   0  0  0  0  0  0  0  0  0  0  0  0
    1.9366    2.5313    0.0000 C   0  0  0  0  0  0  0  0  0  0  0  0
  4  1  1  6  0  0  0
  1 15  1  0  0  0  0
  2 15  2  0  0  0  0
  3  7  1  0  0  0  0
  3  8  1  0  0  0  0
  3 11  1  0  0  0  0
  4  5  1  0  0  0  0
  4  6  1  0  0  0  0
  4 10  1  0  0  0  0
  5  7  1  0  0  0  0
  5  9  1  6  0  0  0
  6  8  1  0  0  0  0
  9 12  1  0  0  0  0
 10 13  2  0  0  0  0
 10 14  1  0  0  0  0
 13 16  1  0  0  0  0
 14 17  2  0  0  0  0
 15 18  1  0  0  0  0
 16 19  2  0  0  0  0
 17 19  1  0  0  0  0
 18 20  1  0  0  0  0
M  END
> <DATABASE_ID>
DB01499

> <DATABASE_NAME>
drugbank

> <SMILES>
CC[C@H]1CN(C)CC[C@]1(OC(=O)CC)C1=CC=CC=C1

> <INCHI_IDENTIFIER>
InChI=1S/C17H25NO2/c1-4-14-13-18(3)12-11-17(14,20-16(19)5-2)15-9-7-6-8-10-15/h6-10,14H,4-5,11-13H2,1-3H3/t14-,17+/m0/s1

> <INCHI_KEY>
ODEGQXRCQDVXSJ-WMLDXEAASA-N

> <FORMULA>
C17H25NO2

> <MOLECULAR_WEIGHT>
275.3859

> <EXACT_MASS>
275.188529049

> <JCHEM_ACCEPTOR_COUNT>
2

> <JCHEM_AVERAGE_POLARIZABILITY>
31.697987721390426

> <JCHEM_BIOAVAILABILITY>
1

> <JCHEM_DONOR_COUNT>
0

> <JCHEM_FORMAL_CHARGE>
0

> <JCHEM_GHOSE_FILTER>
1

> <JCHEM_IUPAC>
(3S,4R)-3-ethyl-1-methyl-4-phenylpiperidin-4-yl propanoate

> <ALOGPS_LOGP>
3.46

> <JCHEM_LOGP>
3.2220243709999985

> <ALOGPS_LOGS>
-3.12

> <JCHEM_MDDR_LIKE_RULE>
0

> <JCHEM_NUMBER_OF_RINGS>
2

> <JCHEM_PHYSIOLOGICAL_CHARGE>
1

> <JCHEM_PKA_STRONGEST_BASIC>
9.104905948490138

> <JCHEM_POLAR_SURFACE_AREA>
29.54

> <JCHEM_REFRACTIVITY>
81.0104

> <JCHEM_ROTATABLE_BOND_COUNT>
5

> <JCHEM_RULE_OF_FIVE>
1

> <ALOGPS_SOLUBILITY>
2.11e-01 g/l

> <JCHEM_TRADITIONAL_IUPAC>
alphameprodine

> <JCHEM_VEBER_RULE>
1

> <DRUGBANK_ID>
DB01499

> <DRUG_GROUPS>
experimental; illicit

> <GENERIC_NAME>
Alphameprodine

> <SYNONYMS>
3alpha-Ethyl-1-methyl-4-phenyl-4alpha-piperidyl propionat; Alfameprodina; alpha-3-ethyl-1-methyl-4-phenyl-4-propionoxypiperidine; alpha-3-Ethyl-1-methyl-4-phenyl-4-propionyloxypiperidine; Alphameprodinum

$$$$

  Mrv1572004091616052D          

 25 28  0  0  0  0            999 V2000
   -0.6410   -0.1114    0.0000 C   0  0  2  0  0  0  0  0  0  0  0  0
   -0.6410   -0.9364    0.0000 C   0  0  0  0  0  0  0  0  0  0  0  0
   -1.3544    0.3121    0.0000 C   0  0  0  0  0  0  0  0  0  0  0  0
   -1.3544   -1.3433    0.0000 C   0  0  0  0  0  0  0  0  0  0  0  0
   -2.0623   -0.1114    0.0000 C   0  0  0  0  0  0  0  0  0  0  0  0
   -2.0623   -0.9364    0.0000 C   0  0  0  0  0  0  0  0  0  0  0  0
    0.0836    0.3121    0.0000 C   0  0  2  0  0  0  0  0  0  0  0  0
    0.7915   -0.1114    0.0000 C   0  0  1  0  0  0  0  0  0  0  0  0
    0.0836   -1.3433    0.0000 C   0  0  0  0  0  0  0  0  0  0  0  0
    0.7915   -0.9364    0.0000 C   0  0  0  0  0  0  0  0  0  0  0  0
    0.0836    1.1371    0.0000 C   0  0  0  0  0  0  0  0  0  0  0  0
    0.7915    1.5440    0.0000 C   0  0  0  0  0  0  0  0  0  0  0  0
    1.5160    0.3121    0.0000 C   0  0  1  0  0  0  0  0  0  0  0  0
    1.5160    1.1371    0.0000 C   0  0  1  0  0  0  0  0  0  0  0  0
    2.2965    0.0557    0.0000 C   0  0  0  0  0  0  0  0  0  0  0  0
    2.7870    0.7190    0.0000 C   0  0  0  0  0  0  0  0  0  0  0  0
    2.2965    1.3935    0.0000 C   0  0  2  0  0  0  0  0  0  0  0  0
   -2.7870   -1.3433    0.0000 O   0  0  0  0  0  0  0  0  0  0  0  0
   -1.3544   -2.1739    0.0000 O   0  0  0  0  0  0  0  0  0  0  0  0
    2.5529    2.1739    0.0000 O   0  0  0  0  0  0  0  0  0  0  0  0
    1.5160    1.9676    0.0000 C   0  0  0  0  0  0  0  0  0  0  0  0
   -0.6410    0.7190    0.0000 H   0  0  0  0  0  0  0  0  0  0  0  0
    0.0836   -0.5184    0.0000 H   0  0  0  0  0  0  0  0  0  0  0  0
    0.7915    0.7190    0.0000 H   0  0  0  0  0  0  0  0  0  0  0  0
    1.5160   -0.5184    0.0000 H   0  0  0  0  0  0  0  0  0  0  0  0
  1  3  1  0  0  0  0
  1  7  1  0  0  0  0
  1  2  1  0  0  0  0
  1 22  1  1  0  0  0
  2  4  2  0  0  0  0
  2  9  1  0  0  0  0
  3  5  1  0  0  0  0
  4  6  1  0  0  0  0
  4 19  1  0  0  0  0
  5  6  1  0  0  0  0
  6 18  2  0  0  0  0
  7 11  1  0  0  0  0
  7  8  1  0  0  0  0
  7 23  1  6  0  0  0
  8 10  1  0  0  0  0
  8 13  1  0  0  0  0
  8 24  1  1  0  0  0
  9 10  1  0  0  0  0
 11 12  1  0  0  0  0
 12 14  1  0  0  0  0
 13 15  1  0  0  0  0
 13 14  1  0  0  0  0
 13 25  1  6  0  0  0
 14 17  1  0  0  0  0
 14 21  1  1  0  0  0
 15 16  1  0  0  0  0
 16 17  1  0  0  0  0
 17 20  1  1  0  0  0
M  END
> <DATABASE_ID>
DB01500

> <DATABASE_NAME>
drugbank

> <SMILES>
[H][C@@]12CC[C@H](O)[C@@]1(C)CC[C@]1([H])[C@@]3([H])CCC(=O)C(O)=C3CC[C@@]21[H]

> <INCHI_IDENTIFIER>
InChI=1S/C18H26O3/c1-18-9-8-11-10-4-6-15(19)17(21)13(10)3-2-12(11)14(18)5-7-16(18)20/h10-12,14,16,20-21H,2-9H2,1H3/t10-,11-,12-,14+,16+,18+/m1/s1

> <INCHI_KEY>
GXHBCWCMYVTJOW-YGRHGMIBSA-N

> <FORMULA>
C18H26O3

> <MOLECULAR_WEIGHT>
290.403

> <EXACT_MASS>
290.188194697

> <JCHEM_ACCEPTOR_COUNT>
3

> <JCHEM_ATOM_COUNT>
47

> <JCHEM_AVERAGE_POLARIZABILITY>
33.23175806514739

> <JCHEM_BIOAVAILABILITY>
1

> <JCHEM_DONOR_COUNT>
2

> <JCHEM_FORMAL_CHARGE>
0

> <JCHEM_GHOSE_FILTER>
1

> <JCHEM_IUPAC>
(1S,2R,10R,11S,14S,15S)-6,14-dihydroxy-15-methyltetracyclo[8.7.0.0²,⁷.0¹¹,¹⁵]heptadec-6-en-5-one

> <ALOGPS_LOGP>
1.95

> <JCHEM_LOGP>
2.5467184963333334

> <ALOGPS_LOGS>
-3.52

> <JCHEM_MDDR_LIKE_RULE>
0

> <JCHEM_NUMBER_OF_RINGS>
4

> <JCHEM_PHYSIOLOGICAL_CHARGE>
0

> <JCHEM_PKA>
19.3777053019236

> <JCHEM_PKA_STRONGEST_ACIDIC>
9.297519156769859

> <JCHEM_PKA_STRONGEST_BASIC>
-0.8839904615213591

> <JCHEM_POLAR_SURFACE_AREA>
57.53

> <JCHEM_REFRACTIVITY>
81.92209999999997

> <JCHEM_ROTATABLE_BOND_COUNT>
0

> <JCHEM_RULE_OF_FIVE>
1

> <ALOGPS_SOLUBILITY>
8.83e-02 g/l

> <JCHEM_TRADITIONAL_IUPAC>
4-hydroxy-19-nortestosterone

> <JCHEM_VEBER_RULE>
0

> <DRUGBANK_ID>
DB01500

> <DRUG_GROUPS>
experimental; illicit

> <GENERIC_NAME>
Oxabolone

> <SYNONYMS>
4-hydroxy nandrolone; 4-hydroxy-19-nortestosterone

$$$$
1501
  Mrv0541 02231215312D          

 32 35  0  0  0  0            999 V2000
    3.6020    2.8717    0.0000 O   0  0  0  0  0  0  0  0  0  0  0  0
    4.5704    3.6842    0.0000 O   0  0  0  0  0  0  0  0  0  0  0  0
    4.8396    0.5072    0.0000 N   0  0  0  0  0  0  0  0  0  0  0  0
    5.7751   -1.5553    0.0000 N   0  0  0  0  0  0  0  0  0  0  0  0
    4.8396    2.1573    0.0000 C   0  0  0  0  0  0  0  0  0  0  0  0
    5.5541    1.7447    0.0000 C   0  0  0  0  0  0  0  0  0  0  0  0
    4.1251    1.7447    0.0000 C   0  0  0  0  0  0  0  0  0  0  0  0
    5.5541    0.9197    0.0000 C   0  0  0  0  0  0  0  0  0  0  0  0
    4.1251    0.9197    0.0000 C   0  0  0  0  0  0  0  0  0  0  0  0
    4.8396   -0.3178    0.0000 C   0  0  0  0  0  0  0  0  0  0  0  0
    5.4716    2.6876    0.0000 C   0  0  0  0  0  0  0  0  0  0  0  0
    4.1251   -0.7303    0.0000 C   0  0  0  0  0  0  0  0  0  0  0  0
    4.4270    2.8717    0.0000 C   0  0  0  0  0  0  0  0  0  0  0  0
    4.1251   -1.5553    0.0000 C   0  0  0  0  0  0  0  0  0  0  0  0
    5.3283    3.5001    0.0000 C   0  0  0  0  0  0  0  0  0  0  0  0
    6.2469    2.4054    0.0000 C   0  0  0  0  0  0  0  0  0  0  0  0
    4.1251   -2.3803    0.0000 C   0  0  0  0  0  0  0  0  0  0  0  0
    3.3001   -1.5553    0.0000 C   0  0  0  0  0  0  0  0  0  0  0  0
    5.9603    4.0304    0.0000 C   0  0  0  0  0  0  0  0  0  0  0  0
    6.8788    2.9357    0.0000 C   0  0  0  0  0  0  0  0  0  0  0  0
    4.9501   -1.5553    0.0000 C   0  0  0  0  0  0  0  0  0  0  0  0
    6.7356    3.7482    0.0000 C   0  0  0  0  0  0  0  0  0  0  0  0
    4.8396   -2.7929    0.0000 C   0  0  0  0  0  0  0  0  0  0  0  0
    2.8876   -2.2698    0.0000 C   0  0  0  0  0  0  0  0  0  0  0  0
    3.4106   -2.7929    0.0000 C   0  0  0  0  0  0  0  0  0  0  0  0
    2.8876   -0.8409    0.0000 C   0  0  0  0  0  0  0  0  0  0  0  0
    4.8396   -3.6179    0.0000 C   0  0  0  0  0  0  0  0  0  0  0  0
    2.0625   -2.2698    0.0000 C   0  0  0  0  0  0  0  0  0  0  0  0
    3.4106   -3.6179    0.0000 C   0  0  0  0  0  0  0  0  0  0  0  0
    2.0625   -0.8409    0.0000 C   0  0  0  0  0  0  0  0  0  0  0  0
    4.1251   -4.0304    0.0000 C   0  0  0  0  0  0  0  0  0  0  0  0
    1.6500   -1.5553    0.0000 C   0  0  0  0  0  0  0  0  0  0  0  0
  1 13  1  0  0  0  0
  2 13  2  0  0  0  0
  3  8  1  0  0  0  0
  3  9  1  0  0  0  0
  3 10  1  0  0  0  0
  4 21  3  0  0  0  0
  5  6  1  0  0  0  0
  5  7  1  0  0  0  0
  5 11  1  0  0  0  0
  5 13  1  0  0  0  0
  6  8  1  0  0  0  0
  7  9  1  0  0  0  0
 10 12  1  0  0  0  0
 11 15  2  0  0  0  0
 11 16  1  0  0  0  0
 12 14  1  0  0  0  0
 14 17  1  0  0  0  0
 14 18  1  0  0  0  0
 14 21  1  0  0  0  0
 15 19  1  0  0  0  0
 16 20  2  0  0  0  0
 17 23  2  0  0  0  0
 17 25  1  0  0  0  0
 18 24  2  0  0  0  0
 18 26  1  0  0  0  0
 19 22  2  0  0  0  0
 20 22  1  0  0  0  0
 23 27  1  0  0  0  0
 24 28  1  0  0  0  0
 25 29  2  0  0  0  0
 26 30  2  0  0  0  0
 27 31  2  0  0  0  0
 28 32  2  0  0  0  0
 29 31  1  0  0  0  0
 30 32  1  0  0  0  0
M  END
> <DATABASE_ID>
DB01501

> <DATABASE_NAME>
drugbank

> <SMILES>
OC(=O)C1(CCN(CCC(C#N)(C2=CC=CC=C2)C2=CC=CC=C2)CC1)C1=CC=CC=C1

> <INCHI_IDENTIFIER>
InChI=1S/C28H28N2O2/c29-22-28(24-12-6-2-7-13-24,25-14-8-3-9-15-25)18-21-30-19-16-27(17-20-30,26(31)32)23-10-4-1-5-11-23/h1-15H,16-21H2,(H,31,32)

> <INCHI_KEY>
UFIVBRCCIRTJTN-UHFFFAOYSA-N

> <FORMULA>
C28H28N2O2

> <MOLECULAR_WEIGHT>
424.5341

> <EXACT_MASS>
424.21507815

> <JCHEM_ACCEPTOR_COUNT>
4

> <JCHEM_AVERAGE_POLARIZABILITY>
47.561259541801356

> <JCHEM_BIOAVAILABILITY>
1

> <JCHEM_DONOR_COUNT>
1

> <JCHEM_FORMAL_CHARGE>
0

> <JCHEM_GHOSE_FILTER>
0

> <JCHEM_IUPAC>
1-(3-cyano-3,3-diphenylpropyl)-4-phenylpiperidine-4-carboxylic acid

> <ALOGPS_LOGP>
4.39

> <JCHEM_LOGP>
2.649648205037271

> <ALOGPS_LOGS>
-5.31

> <JCHEM_MDDR_LIKE_RULE>
1

> <JCHEM_NUMBER_OF_RINGS>
4

> <JCHEM_PHYSIOLOGICAL_CHARGE>
0

> <JCHEM_PKA_STRONGEST_ACIDIC>
3.3836011909163433

> <JCHEM_PKA_STRONGEST_BASIC>
9.406326236510976

> <JCHEM_POLAR_SURFACE_AREA>
64.33

> <JCHEM_REFRACTIVITY>
137.2442

> <JCHEM_ROTATABLE_BOND_COUNT>
7

> <JCHEM_RULE_OF_FIVE>
1

> <ALOGPS_SOLUBILITY>
2.08e-03 g/l

> <JCHEM_TRADITIONAL_IUPAC>
difenoxin

> <JCHEM_VEBER_RULE>
0

> <DRUGBANK_ID>
DB01501

> <DRUG_GROUPS>
approved; illicit

> <GENERIC_NAME>
Difenoxin

> <SYNONYMS>
1-(3-cyano-3,3-diphenylpropyl)-4-phenylisonipecotic acid; Difenoxin; Difenoxina; Difenoxinum; Diphenoxilic acid; Diphenoxylic acid

> <PRODUCTS>
Motofen

> <INTERNATIONAL_BRANDS>
Lyspafen

> <SALTS>
Difenoxin hydrochloride

$$$$
1502
  Mrv0541 02231215312D          

 24 25  0  0  1  0            999 V2000
    5.9370   -1.4438    0.0000 O   0  0  0  0  0  0  0  0  0  0  0  0
    3.0791    0.2063    0.0000 N   0  0  0  0  0  0  0  0  0  0  0  0
    4.5080   -1.4438    0.0000 N   0  0  0  0  0  0  0  0  0  0  0  0
    3.7935   -0.2063    0.0000 C   0  0  0  0  0  0  0  0  0  0  0  0
    3.7935   -1.0313    0.0000 C   0  0  0  0  0  0  0  0  0  0  0  0
    3.0791    1.0313    0.0000 C   0  0  0  0  0  0  0  0  0  0  0  0
    4.5080    0.2063    0.0000 C   0  0  0  0  0  0  0  0  0  0  0  0
    2.3645    1.4438    0.0000 C   0  0  0  0  0  0  0  0  0  0  0  0
    2.3645   -0.2063    0.0000 C   0  0  0  0  0  0  0  0  0  0  0  0
    4.5080   -2.2688    0.0000 C   0  0  0  0  0  0  0  0  0  0  0  0
    2.3645    2.2688    0.0000 C   0  0  0  0  0  0  0  0  0  0  0  0
    5.2224   -1.0313    0.0000 C   0  0  0  0  0  0  0  0  0  0  0  0
    5.2224   -0.2063    0.0000 C   0  0  0  0  0  0  0  0  0  0  0  0
    5.2224   -2.6813    0.0000 C   0  0  0  0  0  0  0  0  0  0  0  0
    3.7935   -2.6813    0.0000 C   0  0  0  0  0  0  0  0  0  0  0  0
    1.6500    2.6813    0.0000 C   0  0  0  0  0  0  0  0  0  0  0  0
    3.0791    2.6813    0.0000 C   0  0  0  0  0  0  0  0  0  0  0  0
    5.9370    0.2063    0.0000 C   0  0  0  0  0  0  0  0  0  0  0  0
    5.2224   -3.5063    0.0000 C   0  0  0  0  0  0  0  0  0  0  0  0
    3.7935   -3.5063    0.0000 C   0  0  0  0  0  0  0  0  0  0  0  0
    1.6500    3.5063    0.0000 C   0  0  0  0  0  0  0  0  0  0  0  0
    3.0791    3.5063    0.0000 C   0  0  0  0  0  0  0  0  0  0  0  0
    4.5080   -3.9188    0.0000 C   0  0  0  0  0  0  0  0  0  0  0  0
    2.3645    3.9188    0.0000 C   0  0  0  0  0  0  0  0  0  0  0  0
  1 12  2  0  0  0  0
  2  4  1  0  0  0  0
  2  6  1  0  0  0  0
  2  9  1  0  0  0  0
  3  5  1  0  0  0  0
  3 10  1  0  0  0  0
  3 12  1  0  0  0  0
  4  5  1  0  0  0  0
  4  7  1  0  0  0  0
  6  8  1  0  0  0  0
  8 11  1  0  0  0  0
 10 14  2  0  0  0  0
 10 15  1  0  0  0  0
 11 16  2  0  0  0  0
 11 17  1  0  0  0  0
 12 13  1  0  0  0  0
 13 18  1  0  0  0  0
 14 19  1  0  0  0  0
 15 20  2  0  0  0  0
 16 21  1  0  0  0  0
 17 22  2  0  0  0  0
 19 23  2  0  0  0  0
 20 23  1  0  0  0  0
 21 24  2  0  0  0  0
 22 24  1  0  0  0  0
M  END
> <DATABASE_ID>
DB01502

> <DATABASE_NAME>
drugbank

> <SMILES>
CCC(=O)N(CC(C)N(C)CCC1=CC=CC=C1)C1=CC=CC=C1

> <INCHI_IDENTIFIER>
InChI=1S/C21H28N2O/c1-4-21(24)23(20-13-9-6-10-14-20)17-18(2)22(3)16-15-19-11-7-5-8-12-19/h5-14,18H,4,15-17H2,1-3H3

> <INCHI_KEY>
RXTHKWVSXOIHJS-UHFFFAOYSA-N

> <FORMULA>
C21H28N2O

> <MOLECULAR_WEIGHT>
324.4598

> <EXACT_MASS>
324.220163528

> <JCHEM_ACCEPTOR_COUNT>
2

> <JCHEM_AVERAGE_POLARIZABILITY>
38.34455972137762

> <JCHEM_BIOAVAILABILITY>
1

> <JCHEM_DONOR_COUNT>
0

> <JCHEM_FORMAL_CHARGE>
0

> <JCHEM_GHOSE_FILTER>
1

> <JCHEM_IUPAC>
N-{2-[methyl(2-phenylethyl)amino]propyl}-N-phenylpropanamide

> <ALOGPS_LOGP>
3.95

> <JCHEM_LOGP>
4.223911968333333

> <ALOGPS_LOGS>
-4.07

> <JCHEM_MDDR_LIKE_RULE>
0

> <JCHEM_NUMBER_OF_RINGS>
2

> <JCHEM_PHYSIOLOGICAL_CHARGE>
1

> <JCHEM_PKA_STRONGEST_BASIC>
8.741474410755792

> <JCHEM_POLAR_SURFACE_AREA>
23.550000000000004

> <JCHEM_REFRACTIVITY>
100.46930000000003

> <JCHEM_ROTATABLE_BOND_COUNT>
8

> <JCHEM_RULE_OF_FIVE>
1

> <ALOGPS_SOLUBILITY>
2.76e-02 g/l

> <JCHEM_TRADITIONAL_IUPAC>
diampromide

> <JCHEM_VEBER_RULE>
1

> <DRUGBANK_ID>
DB01502

> <DRUG_GROUPS>
experimental; illicit

> <GENERIC_NAME>
Diampromide

$$$$

  Mrv1909 02072021352D          

 25 28  0  0  0  0            999 V2000
   -2.0602   -0.3162    0.0000 C   0  0  0  0  0  0  0  0  0  0  0  0
   -2.0602   -1.1472    0.0000 C   0  0  1  0  0  0  0  0  0  0  0  0
   -1.3496   -1.5576    0.0000 C   0  0  0  0  0  0  0  0  0  0  0  0
   -0.6340   -1.1472    0.0000 C   0  0  1  0  0  0  0  0  0  0  0  0
   -0.6340   -0.3162    0.0000 C   0  0  2  0  0  0  0  0  0  0  0  0
   -1.3496    0.0943    0.0000 C   0  0  0  0  0  0  0  0  0  0  0  0
    0.0765    0.0943    0.0000 C   0  0  2  0  0  0  0  0  0  0  0  0
    0.7923   -0.3162    0.0000 C   0  0  1  0  0  0  0  0  0  0  0  0
    0.7923   -1.1472    0.0000 C   0  0  0  0  0  0  0  0  0  0  0  0
    0.0765   -1.5576    0.0000 C   0  0  0  0  0  0  0  0  0  0  0  0
    1.5080    0.0943    0.0000 C   0  0  1  0  0  0  0  0  0  0  0  0
    1.5080    0.9154    0.0000 C   0  0  2  0  0  0  0  0  0  0  0  0
    0.7923    1.3266    0.0000 C   0  0  0  0  0  0  0  0  0  0  0  0
    0.0765    0.9154    0.0000 C   0  0  0  0  0  0  0  0  0  0  0  0
    2.2875    1.1683    0.0000 C   0  0  2  0  0  0  0  0  0  0  0  0
    2.7760    0.5047    0.0000 C   0  0  0  0  0  0  0  0  0  0  0  0
    2.2875   -0.1631    0.0000 C   0  0  0  0  0  0  0  0  0  0  0  0
    2.5450    1.9577    0.0000 O   0  0  0  0  0  0  0  0  0  0  0  0
    1.5080    1.7418    0.0000 C   0  0  0  0  0  0  0  0  0  0  0  0
    1.5080   -0.7366    0.0000 H   0  0  0  0  0  0  0  0  0  0  0  0
    0.7923    0.5047    0.0000 H   0  0  0  0  0  0  0  0  0  0  0  0
    0.0765   -0.7366    0.0000 H   0  0  0  0  0  0  0  0  0  0  0  0
   -0.6340    0.5047    0.0000 C   0  0  0  0  0  0  0  0  0  0  0  0
   -0.6340   -1.9577    0.0000 H   0  0  0  0  0  0  0  0  0  0  0  0
   -2.7760   -1.5576    0.0000 O   0  0  0  0  0  0  0  0  0  0  0  0
  1  2  1  0  0  0  0
  2  3  1  0  0  0  0
  3  4  1  0  0  0  0
  4  5  1  0  0  0  0
  5  6  1  0  0  0  0
  1  6  2  0  0  0  0
  5  7  1  0  0  0  0
  8  7  1  0  0  0  0
  9  8  1  0  0  0  0
 10  9  1  0  0  0  0
  4 10  1  0  0  0  0
  8 11  1  0  0  0  0
 11 12  1  0  0  0  0
 12 13  1  0  0  0  0
 13 14  1  0  0  0  0
  7 14  1  0  0  0  0
 12 15  1  0  0  0  0
 16 15  1  0  0  0  0
 17 16  1  0  0  0  0
 11 17  1  0  0  0  0
 15 18  1  1  0  0  0
 12 19  1  1  0  0  0
 11 20  1  6  0  0  0
  8 21  1  1  0  0  0
  7 22  1  6  0  0  0
  5 23  1  1  0  0  0
  4 24  1  6  0  0  0
  2 25  1  1  0  0  0
M  END
> <DATABASE_ID>
DB01503

> <DATABASE_NAME>
drugbank

> <SMILES>
[H][C@@]12CC[C@H](O)[C@@]1(C)CC[C@@]1([H])[C@@]2([H])CC[C@@]2([H])C[C@@H](O)C=C[C@]12C

> <INCHI_IDENTIFIER>
InChI=1S/C19H30O2/c1-18-9-7-13(20)11-12(18)3-4-14-15-5-6-17(21)19(15,2)10-8-16(14)18/h7,9,12-17,20-21H,3-6,8,10-11H2,1-2H3/t12-,13-,14-,15-,16-,17-,18-,19-/m0/s1

> <INCHI_KEY>
RZFGPAMUAXASRE-YSZCXEEOSA-N

> <FORMULA>
C19H30O2

> <MOLECULAR_WEIGHT>
290.447

> <EXACT_MASS>
290.224580206

> <JCHEM_ACCEPTOR_COUNT>
2

> <JCHEM_ATOM_COUNT>
51

> <JCHEM_AVERAGE_NEUTRAL_MICROSPECIES_CHARGE>
1.4748854766634607e-08

> <JCHEM_AVERAGE_POLARIZABILITY>
34.68277005389339

> <JCHEM_BIOAVAILABILITY>
1

> <JCHEM_DONOR_COUNT>
2

> <JCHEM_FORMAL_CHARGE>
0

> <JCHEM_GHOSE_FILTER>
1

> <JCHEM_IUPAC>
(1S,3aS,3bR,5aS,7R,9aR,9bS,11aS)-9a,11a-dimethyl-1H,2H,3H,3aH,3bH,4H,5H,5aH,6H,7H,9aH,9bH,10H,11H,11aH-cyclopenta[a]phenanthrene-1,7-diol

> <ALOGPS_LOGP>
3.71

> <JCHEM_LOGP>
2.997742634333334

> <ALOGPS_LOGS>
-3.92

> <JCHEM_MDDR_LIKE_RULE>
0

> <JCHEM_NEUTRAL_CHARGE>
0

> <JCHEM_NUMBER_OF_RINGS>
4

> <JCHEM_PHYSIOLOGICAL_CHARGE>
0

> <JCHEM_PKA>
19.377705257052835

> <JCHEM_PKA_STRONGEST_ACIDIC>
17.504275809877356

> <JCHEM_PKA_STRONGEST_BASIC>
-0.8227081287525303

> <JCHEM_POLAR_SURFACE_AREA>
40.46

> <JCHEM_REFRACTIVITY>
85.59379999999999

> <JCHEM_ROTATABLE_BOND_COUNT>
0

> <JCHEM_RULE_OF_FIVE>
1

> <ALOGPS_SOLUBILITY>
3.48e-02 g/l

> <JCHEM_TRADITIONAL_IUPAC>
Ogen

> <JCHEM_VEBER_RULE>
0

> <DRUGBANK_ID>
DB01503

> <DRUG_GROUPS>
experimental; illicit

> <GENERIC_NAME>
1-Androstenediol

$$$$
1505
  Mrv0541 02231215312D          

 23 24  0  0  0  0            999 V2000
    2.8876    2.7150    0.0000 O   0  0  0  0  0  0  0  0  0  0  0  0
    3.8558    3.5274    0.0000 O   0  0  0  0  0  0  0  0  0  0  0  0
    3.4106   -1.7121    0.0000 O   0  0  0  0  0  0  0  0  0  0  0  0
    1.9816   -3.3621    0.0000 O   0  0  0  0  0  0  0  0  0  0  0  0
    4.1251    0.3505    0.0000 N   0  0  0  0  0  0  0  0  0  0  0  0
    4.1251    2.0005    0.0000 C   0  0  0  0  0  0  0  0  0  0  0  0
    4.8396    1.5880    0.0000 C   0  0  0  0  0  0  0  0  0  0  0  0
    3.4106    1.5880    0.0000 C   0  0  0  0  0  0  0  0  0  0  0  0
    4.8396    0.7630    0.0000 C   0  0  0  0  0  0  0  0  0  0  0  0
    3.4106    0.7630    0.0000 C   0  0  0  0  0  0  0  0  0  0  0  0
    4.7571    2.5308    0.0000 C   0  0  0  0  0  0  0  0  0  0  0  0
    3.7126    2.7150    0.0000 C   0  0  0  0  0  0  0  0  0  0  0  0
    4.1251   -0.4746    0.0000 C   0  0  0  0  0  0  0  0  0  0  0  0
    4.6138    3.3433    0.0000 C   0  0  0  0  0  0  0  0  0  0  0  0
    5.5323    2.2487    0.0000 C   0  0  0  0  0  0  0  0  0  0  0  0
    3.4106   -0.8871    0.0000 C   0  0  0  0  0  0  0  0  0  0  0  0
    5.2458    3.8736    0.0000 C   0  0  0  0  0  0  0  0  0  0  0  0
    6.1644    2.7790    0.0000 C   0  0  0  0  0  0  0  0  0  0  0  0
    6.0211    3.5915    0.0000 C   0  0  0  0  0  0  0  0  0  0  0  0
    2.4751    3.4295    0.0000 C   0  0  0  0  0  0  0  0  0  0  0  0
    2.6961   -2.1246    0.0000 C   0  0  0  0  0  0  0  0  0  0  0  0
    1.6500    3.4295    0.0000 C   0  0  0  0  0  0  0  0  0  0  0  0
    2.6961   -2.9496    0.0000 C   0  0  0  0  0  0  0  0  0  0  0  0
  1 12  1  0  0  0  0
  1 20  1  0  0  0  0
  2 12  2  0  0  0  0
  3 16  1  0  0  0  0
  3 21  1  0  0  0  0
  4 23  1  0  0  0  0
  5  9  1  0  0  0  0
  5 10  1  0  0  0  0
  5 13  1  0  0  0  0
  6  7  1  0  0  0  0
  6  8  1  0  0  0  0
  6 11  1  0  0  0  0
  6 12  1  0  0  0  0
  7  9  1  0  0  0  0
  8 10  1  0  0  0  0
 11 14  2  0  0  0  0
 11 15  1  0  0  0  0
 13 16  1  0  0  0  0
 14 17  1  0  0  0  0
 15 18  2  0  0  0  0
 17 19  2  0  0  0  0
 18 19  1  0  0  0  0
 20 22  1  0  0  0  0
 21 23  1  0  0  0  0
M  END
> <DATABASE_ID>
DB01505

> <DATABASE_NAME>
drugbank

> <SMILES>
CCOC(=O)C1(CCN(CCOCCO)CC1)C1=CC=CC=C1

> <INCHI_IDENTIFIER>
InChI=1S/C18H27NO4/c1-2-23-17(21)18(16-6-4-3-5-7-16)8-10-19(11-9-18)12-14-22-15-13-20/h3-7,20H,2,8-15H2,1H3

> <INCHI_KEY>
KJTKYGFGPQSRRA-UHFFFAOYSA-N

> <FORMULA>
C18H27NO4

> <MOLECULAR_WEIGHT>
321.4113

> <EXACT_MASS>
321.194008357

> <JCHEM_ACCEPTOR_COUNT>
4

> <JCHEM_AVERAGE_POLARIZABILITY>
36.23539093041995

> <JCHEM_BIOAVAILABILITY>
1

> <JCHEM_DONOR_COUNT>
1

> <JCHEM_FORMAL_CHARGE>
0

> <JCHEM_GHOSE_FILTER>
1

> <JCHEM_IUPAC>
ethyl 1-[2-(2-hydroxyethoxy)ethyl]-4-phenylpiperidine-4-carboxylate

> <ALOGPS_LOGP>
2.00

> <JCHEM_LOGP>
1.7187228756666664

> <ALOGPS_LOGS>
-2.37

> <JCHEM_MDDR_LIKE_RULE>
0

> <JCHEM_NUMBER_OF_RINGS>
2

> <JCHEM_PHYSIOLOGICAL_CHARGE>
1

> <JCHEM_PKA_STRONGEST_ACIDIC>
15.12122772584651

> <JCHEM_PKA_STRONGEST_BASIC>
8.021474157671795

> <JCHEM_POLAR_SURFACE_AREA>
59.00000000000001

> <JCHEM_REFRACTIVITY>
89.8195

> <JCHEM_ROTATABLE_BOND_COUNT>
9

> <JCHEM_RULE_OF_FIVE>
1

> <ALOGPS_SOLUBILITY>
1.37e+00 g/l

> <JCHEM_TRADITIONAL_IUPAC>
etoxeridine

> <JCHEM_VEBER_RULE>
0

> <DRUGBANK_ID>
DB01505

> <DRUG_GROUPS>
experimental; illicit

> <GENERIC_NAME>
Etoxeridine

$$$$
1506
  Mrv0541 02231215322D          

 13 14  0  0  0  0            999 V2000
    2.1615    0.7145    0.0000 N   0  0  0  0  0  0  0  0  0  0  0  0
    2.5741    0.0000    0.0000 C   0  0  0  0  0  0  0  0  0  0  0  0
    3.2885   -0.4125    0.0000 C   0  0  0  0  0  0  0  0  0  0  0  0
    1.8596   -0.4125    0.0000 C   0  0  0  0  0  0  0  0  0  0  0  0
    3.2885   -1.2375    0.0000 C   0  0  0  0  0  0  0  0  0  0  0  0
    1.8596   -1.2375    0.0000 C   0  0  0  0  0  0  0  0  0  0  0  0
    2.5741   -1.6500    0.0000 C   0  0  0  0  0  0  0  0  0  0  0  0
    3.2885    0.4125    0.0000 C   0  0  0  0  0  0  0  0  0  0  0  0
    4.0031    0.0000    0.0000 C   0  0  0  0  0  0  0  0  0  0  0  0
    3.2885    1.2375    0.0000 C   0  0  0  0  0  0  0  0  0  0  0  0
    4.7175    0.4125    0.0000 C   0  0  0  0  0  0  0  0  0  0  0  0
    4.0031    1.6500    0.0000 C   0  0  0  0  0  0  0  0  0  0  0  0
    4.7175    1.2375    0.0000 C   0  0  0  0  0  0  0  0  0  0  0  0
  1  2  1  0  0  0  0
  2  3  1  0  0  0  0
  2  4  1  0  0  0  0
  2  8  1  0  0  0  0
  3  5  1  0  0  0  0
  4  6  1  0  0  0  0
  5  7  1  0  0  0  0
  6  7  1  0  0  0  0
  8  9  2  0  0  0  0
  8 10  1  0  0  0  0
  9 11  1  0  0  0  0
 10 12  2  0  0  0  0
 11 13  2  0  0  0  0
 12 13  1  0  0  0  0
M  END
> <DATABASE_ID>
DB01506

> <DATABASE_NAME>
drugbank

> <SMILES>
NC1(CCCCC1)C1=CC=CC=C1

> <INCHI_IDENTIFIER>
InChI=1S/C12H17N/c13-12(9-5-2-6-10-12)11-7-3-1-4-8-11/h1,3-4,7-8H,2,5-6,9-10,13H2

> <INCHI_KEY>
RGZGRPPQZUQUCR-UHFFFAOYSA-N

> <FORMULA>
C12H17N

> <MOLECULAR_WEIGHT>
175.2701

> <EXACT_MASS>
175.136099549

> <JCHEM_ACCEPTOR_COUNT>
1

> <JCHEM_AVERAGE_POLARIZABILITY>
20.69286406070249

> <JCHEM_BIOAVAILABILITY>
1

> <JCHEM_DONOR_COUNT>
1

> <JCHEM_FORMAL_CHARGE>
0

> <JCHEM_GHOSE_FILTER>
1

> <JCHEM_IUPAC>
1-phenylcyclohexan-1-amine

> <ALOGPS_LOGP>
2.87

> <JCHEM_LOGP>
2.822053497333333

> <ALOGPS_LOGS>
-3.49

> <JCHEM_MDDR_LIKE_RULE>
0

> <JCHEM_NUMBER_OF_RINGS>
2

> <JCHEM_PHYSIOLOGICAL_CHARGE>
1

> <JCHEM_PKA_STRONGEST_BASIC>
10.048262014995158

> <JCHEM_POLAR_SURFACE_AREA>
26.02

> <JCHEM_REFRACTIVITY>
55.43520000000001

> <JCHEM_ROTATABLE_BOND_COUNT>
1

> <JCHEM_RULE_OF_FIVE>
1

> <ALOGPS_SOLUBILITY>
5.73e-02 g/l

> <JCHEM_TRADITIONAL_IUPAC>
1-phenylcyclohexylamine

> <JCHEM_VEBER_RULE>
1

> <DRUGBANK_ID>
DB01506

> <DRUG_GROUPS>
experimental; illicit

> <GENERIC_NAME>
1-Phenylcyclohexylamine

$$$$
1509
  Mrv0541 02231215322D          

 13 14  0  0  1  0            999 V2000
    6.4461    0.4081    0.0000 O   0  0  0  0  0  0  0  0  0  0  0  0
    6.4461   -0.9196    0.0000 O   0  0  0  0  0  0  0  0  0  0  0  0
    2.0930    0.5693    0.0000 N   0  0  0  0  0  0  0  0  0  0  0  0
    3.5220    0.5693    0.0000 C   0  0  0  0  0  0  0  0  0  0  0  0
    2.8075    0.1568    0.0000 C   0  0  0  0  0  0  0  0  0  0  0  0
    4.2365    0.1568    0.0000 C   0  0  0  0  0  0  0  0  0  0  0  0
    4.9509    0.5693    0.0000 C   0  0  0  0  0  0  0  0  0  0  0  0
    5.6655    0.1568    0.0000 C   0  0  0  0  0  0  0  0  0  0  0  0
    4.2365   -0.6683    0.0000 C   0  0  0  0  0  0  0  0  0  0  0  0
    5.6655   -0.6683    0.0000 C   0  0  0  0  0  0  0  0  0  0  0  0
    2.8075   -0.6683    0.0000 C   0  0  0  0  0  0  0  0  0  0  0  0
    4.9509   -1.0808    0.0000 C   0  0  0  0  0  0  0  0  0  0  0  0
    6.9276   -0.2558    0.0000 C   0  0  0  0  0  0  0  0  0  0  0  0
  1  8  1  0  0  0  0
  1 13  1  0  0  0  0
  2 10  1  0  0  0  0
  2 13  1  0  0  0  0
  3  5  1  0  0  0  0
  4  5  1  0  0  0  0
  4  6  1  0  0  0  0
  5 11  1  0  0  0  0
  6  7  2  0  0  0  0
  6  9  1  0  0  0  0
  7  8  1  0  0  0  0
  8 10  2  0  0  0  0
  9 12  2  0  0  0  0
 10 12  1  0  0  0  0
M  END
> <DATABASE_ID>
DB01509

> <DATABASE_NAME>
drugbank

> <SMILES>
CC(N)CC1=CC2=C(OCO2)C=C1

> <INCHI_IDENTIFIER>
InChI=1S/C10H13NO2/c1-7(11)4-8-2-3-9-10(5-8)13-6-12-9/h2-3,5,7H,4,6,11H2,1H3

> <INCHI_KEY>
NGBBVGZWCFBOGO-UHFFFAOYSA-N

> <FORMULA>
C10H13NO2

> <MOLECULAR_WEIGHT>
179.2157

> <EXACT_MASS>
179.094628665

> <JCHEM_ACCEPTOR_COUNT>
3

> <JCHEM_AVERAGE_POLARIZABILITY>
19.51322698241418

> <JCHEM_BIOAVAILABILITY>
1

> <JCHEM_DONOR_COUNT>
1

> <JCHEM_FORMAL_CHARGE>
0

> <JCHEM_GHOSE_FILTER>
1

> <JCHEM_IUPAC>
1-(2H-1,3-benzodioxol-5-yl)propan-2-amine

> <ALOGPS_LOGP>
1.15

> <JCHEM_LOGP>
1.4274839493333333

> <ALOGPS_LOGS>
-1.80

> <JCHEM_MDDR_LIKE_RULE>
0

> <JCHEM_NUMBER_OF_RINGS>
2

> <JCHEM_PHYSIOLOGICAL_CHARGE>
1

> <JCHEM_PKA_STRONGEST_BASIC>
10.011411157347462

> <JCHEM_POLAR_SURFACE_AREA>
44.480000000000004

> <JCHEM_REFRACTIVITY>
49.472100000000005

> <JCHEM_ROTATABLE_BOND_COUNT>
2

> <JCHEM_RULE_OF_FIVE>
1

> <ALOGPS_SOLUBILITY>
2.83e+00 g/l

> <JCHEM_TRADITIONAL_IUPAC>
3,4-methylenedioxyamphetamine

> <JCHEM_VEBER_RULE>
0

> <DRUGBANK_ID>
DB01509

> <DRUG_GROUPS>
experimental; illicit

> <GENERIC_NAME>
Tenamfetamine

> <SYNONYMS>
3,4-methylenedioxyamphetamine; MDA; Methylenedioxyamphetamine; Tenamfetamina; Tenamfetamine; Tenamfetaminum

$$$$
1511
  Mrv0541 02231215322D          

 20 22  0  0  0  0            999 V2000
    2.5466   -2.3592    0.0000 Cl  0  0  0  0  0  0  0  0  0  0  0  0
    3.6079   -1.4649    0.0000 Cl  0  0  0  0  0  0  0  0  0  0  0  0
    2.3402    2.3592    0.0000 O   0  0  0  0  0  0  0  0  0  0  0  0
    2.1838    0.9709    0.0000 N   0  0  0  0  0  0  0  0  0  0  0  0
    4.0374    0.9709    0.0000 N   0  0  0  0  0  0  0  0  0  0  0  0
    3.1106   -0.1914    0.0000 C   0  0  0  0  0  0  0  0  0  0  0  0
    3.8539    0.1666    0.0000 C   0  0  0  0  0  0  0  0  0  0  0  0
    2.3673    0.1666    0.0000 C   0  0  0  0  0  0  0  0  0  0  0  0
    4.4988   -0.3478    0.0000 C   0  0  0  0  0  0  0  0  0  0  0  0
    3.1880   -1.0472    0.0000 C   0  0  0  0  0  0  0  0  0  0  0  0
    3.5230    1.6159    0.0000 C   0  0  0  0  0  0  0  0  0  0  0  0
    1.6499   -0.3065    0.0000 C   0  0  0  0  0  0  0  0  0  0  0  0
    2.6981    1.6159    0.0000 C   0  0  0  0  0  0  0  0  0  0  0  0
    2.4818   -1.5367    0.0000 C   0  0  0  0  0  0  0  0  0  0  0  0
    1.7075   -1.1639    0.0000 C   0  0  0  0  0  0  0  0  0  0  0  0
    4.3759   -1.1635    0.0000 C   0  0  0  0  0  0  0  0  0  0  0  0
    5.2668   -0.0464    0.0000 C   0  0  0  0  0  0  0  0  0  0  0  0
    5.0209   -1.6779    0.0000 C   0  0  0  0  0  0  0  0  0  0  0  0
    5.9118   -0.5607    0.0000 C   0  0  0  0  0  0  0  0  0  0  0  0
    5.7888   -1.3765    0.0000 C   0  0  0  0  0  0  0  0  0  0  0  0
  1 14  1  0  0  0  0
  2 16  1  0  0  0  0
  3 13  2  0  0  0  0
  4  8  1  0  0  0  0
  4 13  1  0  0  0  0
  5  7  2  0  0  0  0
  5 11  1  0  0  0  0
  6  7  1  0  0  0  0
  6  8  2  0  0  0  0
  6 10  1  0  0  0  0
  7  9  1  0  0  0  0
  8 12  1  0  0  0  0
  9 16  1  0  0  0  0
  9 17  2  0  0  0  0
 10 14  2  0  0  0  0
 11 13  1  0  0  0  0
 12 15  2  0  0  0  0
 14 15  1  0  0  0  0
 16 18  2  0  0  0  0
 17 19  1  0  0  0  0
 18 20  1  0  0  0  0
 19 20  2  0  0  0  0
M  END
> <DATABASE_ID>
DB01511

> <DATABASE_NAME>
drugbank

> <SMILES>
ClC1=CC2=C(NC(=O)CN=C2C2=CC=CC=C2Cl)C=C1

> <INCHI_IDENTIFIER>
InChI=1S/C15H10Cl2N2O/c16-9-5-6-13-11(7-9)15(18-8-14(20)19-13)10-3-1-2-4-12(10)17/h1-7H,8H2,(H,19,20)

> <INCHI_KEY>
CHIFCDOIPRCHCF-UHFFFAOYSA-N

> <FORMULA>
C15H10Cl2N2O

> <MOLECULAR_WEIGHT>
305.159

> <EXACT_MASS>
304.017018366

> <JCHEM_ACCEPTOR_COUNT>
2

> <JCHEM_AVERAGE_POLARIZABILITY>
29.440928184810463

> <JCHEM_BIOAVAILABILITY>
1

> <JCHEM_DONOR_COUNT>
1

> <JCHEM_FORMAL_CHARGE>
0

> <JCHEM_GHOSE_FILTER>
1

> <JCHEM_IUPAC>
7-chloro-5-(2-chlorophenyl)-2,3-dihydro-1H-1,4-benzodiazepin-2-one

> <ALOGPS_LOGP>
3.46

> <JCHEM_LOGP>
3.8160651750000003

> <ALOGPS_LOGS>
-4.68

> <JCHEM_MDDR_LIKE_RULE>
0

> <JCHEM_NUMBER_OF_RINGS>
3

> <JCHEM_PHYSIOLOGICAL_CHARGE>
0

> <JCHEM_PKA_STRONGEST_ACIDIC>
12.293636772928373

> <JCHEM_PKA_STRONGEST_BASIC>
2.049184533048919

> <JCHEM_POLAR_SURFACE_AREA>
41.46

> <JCHEM_REFRACTIVITY>
81.50080000000003

> <JCHEM_ROTATABLE_BOND_COUNT>
1

> <JCHEM_RULE_OF_FIVE>
1

> <ALOGPS_SOLUBILITY>
6.42e-03 g/l

> <JCHEM_TRADITIONAL_IUPAC>
delorazepam

> <JCHEM_VEBER_RULE>
0

> <DRUGBANK_ID>
DB01511

> <DRUG_GROUPS>
experimental; illicit

> <GENERIC_NAME>
Delorazepam

> <SYNONYMS>
Chlordesmethyldiazepam; Clordesmetildiazepam; Delorazepam; Delorazepamum

> <INTERNATIONAL_BRANDS>
Delorazepam Almus; Delorazepam Alter; Delorazepam Aurobindo; Delorazepam DOC; Delorazepam EG; Delorazepam Germed; Delorazepam Hexal; Delorazepam Mylan; Delorazepam Pensa; Delorazepam Ranbaxy; Delorazepam ratiopharm; Delorazepam Sandoz; Delorazepam Teva; Delorazepam Winthrop; EN

$$$$
1512
  Mrv0541 02231215322D          

 24 28  0  0  1  0            999 V2000
    1.9356    0.0458    0.0000 O   0  0  0  0  0  0  0  0  0  0  0  0
    4.4727   -1.4895    0.0000 O   0  0  0  0  0  0  0  0  0  0  0  0
    1.7349   -2.0838    0.0000 O   0  0  0  0  0  0  0  0  0  0  0  0
    1.7349    2.0838    0.0000 O   0  0  0  0  0  0  0  0  0  0  0  0
    5.3440   -0.8250    0.0000 N   0  0  0  0  0  0  0  0  0  0  0  0
    3.2006   -0.4125    0.0000 C   0  0  1  0  0  0  0  0  0  0  0  0
    3.9151   -0.8250    0.0000 C   0  0  1  0  0  0  0  0  0  0  0  0
    4.6296   -0.4125    0.0000 C   0  0  1  0  0  0  0  0  0  0  0  0
    2.4861   -0.8250    0.0000 C   0  0  2  0  0  0  0  0  0  0  0  0
    3.6773    0.1925    0.0000 C   0  0  0  0  0  0  0  0  0  0  0  0
    3.2006    0.4125    0.0000 C   0  0  0  0  0  0  0  0  0  0  0  0
    3.9151   -1.6501    0.0000 C   0  0  0  0  0  0  0  0  0  0  0  0
    2.4861   -1.6501    0.0000 C   0  0  2  0  0  0  0  0  0  0  0  0
    4.6296    0.4125    0.0000 C   0  0  0  0  0  0  0  0  0  0  0  0
    3.2006   -2.0625    0.0000 C   0  0  0  0  0  0  0  0  0  0  0  0
    4.8506    0.1925    0.0000 C   0  0  0  0  0  0  0  0  0  0  0  0
    3.9151    0.8250    0.0000 C   0  0  0  0  0  0  0  0  0  0  0  0
    2.4861    0.8250    0.0000 C   0  0  0  0  0  0  0  0  0  0  0  0
    5.9350   -1.4601    0.0000 C   0  0  0  0  0  0  0  0  0  0  0  0
    3.9151    1.6500    0.0000 C   0  0  0  0  0  0  0  0  0  0  0  0
    2.4861    1.6500    0.0000 C   0  0  0  0  0  0  0  0  0  0  0  0
    3.2006    2.0625    0.0000 C   0  0  0  0  0  0  0  0  0  0  0  0
    4.8675   -1.0645    0.0000 H   0  0  0  0  0  0  0  0  0  0  0  0
    1.8196   -1.0180    0.0000 H   0  0  0  0  0  0  0  0  0  0  0  0
  1  9  1  0  0  0  0
  1 18  1  0  0  0  0
  7  2  1  1  0  0  0
 13  3  1  6  0  0  0
  4 21  1  0  0  0  0
  5  8  1  0  0  0  0
  5 16  1  0  0  0  0
  5 19  1  0  0  0  0
  6  7  1  0  0  0  0
  6  9  1  0  0  0  0
  6 10  1  1  0  0  0
  6 11  1  0  0  0  0
  7  8  1  0  0  0  0
  7 12  1  0  0  0  0
  8 14  1  0  0  0  0
  8 23  1  6  0  0  0
  9 13  1  0  0  0  0
  9 24  1  1  0  0  0
 10 16  1  0  0  0  0
 11 17  2  0  0  0  0
 11 18  1  0  0  0  0
 12 15  1  0  0  0  0
 13 15  1  0  0  0  0
 14 17  1  0  0  0  0
 17 20  1  0  0  0  0
 18 21  2  0  0  0  0
 20 22  2  0  0  0  0
 21 22  1  0  0  0  0
M  END
> <DATABASE_ID>
DB01512

> <DATABASE_NAME>
drugbank

> <SMILES>
[H][C@@]12OC3=C(O)C=CC4=C3[C@@]11CCN(C)[C@]([H])(C4)[C@]1(O)CC[C@@H]2O

> <INCHI_IDENTIFIER>
InChI=1S/C17H21NO4/c1-18-7-6-16-13-9-2-3-10(19)14(13)22-15(16)11(20)4-5-17(16,21)12(18)8-9/h2-3,11-12,15,19-21H,4-8H2,1H3/t11-,12+,15-,16-,17+/m0/s1

> <INCHI_KEY>
AABLHGPVOULICI-BRJGLHKUSA-N

> <FORMULA>
C17H21NO4

> <MOLECULAR_WEIGHT>
303.3529

> <EXACT_MASS>
303.147058165

> <JCHEM_ACCEPTOR_COUNT>
5

> <JCHEM_AVERAGE_POLARIZABILITY>
31.42608326221091

> <JCHEM_BIOAVAILABILITY>
1

> <JCHEM_DONOR_COUNT>
3

> <JCHEM_FORMAL_CHARGE>
0

> <JCHEM_GHOSE_FILTER>
1

> <JCHEM_IUPAC>
(1S,5R,13R,14S,17S)-4-methyl-12-oxa-4-azapentacyclo[9.6.1.0¹,¹³.0⁵,¹⁷.0⁷,¹⁸]octadeca-7(18),8,10-triene-10,14,17-triol

> <ALOGPS_LOGP>
0.53

> <JCHEM_LOGP>
0.19665293136881096

> <ALOGPS_LOGS>
-1.17

> <JCHEM_MDDR_LIKE_RULE>
0

> <JCHEM_NUMBER_OF_RINGS>
5

> <JCHEM_PHYSIOLOGICAL_CHARGE>
1

> <JCHEM_PKA>
13.49373280606109

> <JCHEM_PKA_STRONGEST_ACIDIC>
7.440604586669501

> <JCHEM_PKA_STRONGEST_BASIC>
11.555997151019543

> <JCHEM_POLAR_SURFACE_AREA>
73.16

> <JCHEM_REFRACTIVITY>
80.45690000000002

> <JCHEM_ROTATABLE_BOND_COUNT>
0

> <JCHEM_RULE_OF_FIVE>
1

> <ALOGPS_SOLUBILITY>
2.06e+01 g/l

> <JCHEM_TRADITIONAL_IUPAC>
hydromorphinol

> <JCHEM_VEBER_RULE>
0

> <DRUGBANK_ID>
DB01512

> <DRUG_GROUPS>
experimental; illicit

> <GENERIC_NAME>
Hydromorphinol

$$$$

  Mrv1652306131721572D          

 22 25  0  0  1  0            999 V2000
    4.5466   -0.5086    0.0000 C   0  0  0  0  0  0  0  0  0  0  0  0
    4.8269    0.2673    0.0000 C   0  0  2  0  0  0  0  0  0  0  0  0
    5.3587   -0.3634    0.0000 C   0  0  0  0  0  0  0  0  0  0  0  0
    6.1708   -0.2182    0.0000 C   0  0  0  0  0  0  0  0  0  0  0  0
    6.4511    0.5577    0.0000 C   0  0  1  0  0  0  0  0  0  0  0  0
    5.9193    1.1884    0.0000 C   0  0  0  0  0  0  0  0  0  0  0  0
    5.1072    1.0432    0.0000 C   0  0  2  0  0  0  0  0  0  0  0  0
    4.5754    1.6739    0.0000 C   0  0  0  0  0  0  0  0  0  0  0  0
    3.7633    1.5287    0.0000 C   0  0  0  0  0  0  0  0  0  0  0  0
    3.4830    0.7528    0.0000 C   0  0  2  0  0  0  0  0  0  0  0  0
    4.0148    0.1221    0.0000 C   0  0  2  0  0  0  0  0  0  0  0  0
    3.7345   -0.6539    0.0000 C   0  0  0  0  0  0  0  0  0  0  0  0
    2.9224   -0.7991    0.0000 C   0  0  0  0  0  0  0  0  0  0  0  0
    2.3905   -0.1684    0.0000 C   0  0  1  0  0  0  0  0  0  0  0  0
    2.6708    0.6076    0.0000 C   0  0  1  0  0  0  0  0  0  0  0  0
    2.0195    1.1139    0.0000 C   0  0  0  0  0  0  0  0  0  0  0  0
    1.3367    0.6509    0.0000 C   0  0  0  0  0  0  0  0  0  0  0  0
    1.5660   -0.1416    0.0000 C   0  0  1  0  0  0  0  0  0  0  0  0
    0.8051   -0.4604    0.0000 C   0  0  0  0  0  0  0  0  0  0  0  0
    1.4446   -0.9576    0.0000 O   0  0  0  0  0  0  0  0  0  0  0  0
    2.0307   -0.9107    0.0000 C   0  0  0  0  0  0  0  0  0  0  0  0
    7.2632    0.7029    0.0000 O   0  0  0  0  0  0  0  0  0  0  0  0
  2  1  1  1  0  0  0
  2  3  1  0  0  0  0
  3  4  1  0  0  0  0
  4  5  1  0  0  0  0
  5  6  1  0  0  0  0
  7  6  1  1  0  0  0
  2  7  1  0  0  0  0
  7  8  1  0  0  0  0
  8  9  1  0  0  0  0
 10  9  1  6  0  0  0
 10 11  1  0  0  0  0
  2 11  1  0  0  0  0
 11 12  1  1  0  0  0
 12 13  1  0  0  0  0
 13 14  1  0  0  0  0
 14 15  1  0  0  0  0
 10 15  1  0  0  0  0
 15 16  1  1  0  0  0
 16 17  1  0  0  0  0
 17 18  1  0  0  0  0
 14 18  1  0  0  0  0
 18 19  1  6  0  0  0
 18 20  1  1  0  0  0
 14 21  1  1  0  0  0
  5 22  1  1  0  0  0
M  END
> <DATABASE_ID>
DB01513

> <DATABASE_NAME>
drugbank

> <SMILES>
C[C@]1(O)CC[C@H]2[C@@H]3CC[C@H]4C[C@@H](O)CC[C@]4(C)[C@H]3CC[C@]12C

> <INCHI_IDENTIFIER>
InChI=1S/C20H34O2/c1-18-9-6-14(21)12-13(18)4-5-15-16(18)7-10-19(2)17(15)8-11-20(19,3)22/h13-17,21-22H,4-12H2,1-3H3/t13-,14-,15+,16-,17-,18-,19-,20-/m0/s1

> <INCHI_KEY>
QGKQXZFZOIQFBI-UYEYMFBJSA-N

> <FORMULA>
C20H34O2

> <MOLECULAR_WEIGHT>
306.49

> <EXACT_MASS>
306.255880335

> <JCHEM_ACCEPTOR_COUNT>
2

> <JCHEM_ATOM_COUNT>
56

> <JCHEM_AVERAGE_POLARIZABILITY>
37.21316411024725

> <JCHEM_BIOAVAILABILITY>
1

> <JCHEM_DONOR_COUNT>
2

> <JCHEM_FORMAL_CHARGE>
0

> <JCHEM_GHOSE_FILTER>
1

> <JCHEM_IUPAC>
(1S,2S,5S,7S,10R,11S,14S,15S)-2,14,15-trimethyltetracyclo[8.7.0.0^{2,7}.0^{11,15}]heptadecane-5,14-diol

> <ALOGPS_LOGP>
4.28

> <JCHEM_LOGP>
3.484333499333334

> <ALOGPS_LOGS>
-4.82

> <JCHEM_MDDR_LIKE_RULE>
0

> <JCHEM_NUMBER_OF_RINGS>
4

> <JCHEM_PHYSIOLOGICAL_CHARGE>
0

> <JCHEM_PKA_STRONGEST_ACIDIC>
18.2963963211217

> <JCHEM_PKA_STRONGEST_BASIC>
-0.46803704333201435

> <JCHEM_POLAR_SURFACE_AREA>
40.46

> <JCHEM_REFRACTIVITY>
89.2694

> <JCHEM_ROTATABLE_BOND_COUNT>
0

> <JCHEM_RULE_OF_FIVE>
1

> <ALOGPS_SOLUBILITY>
4.69e-03 g/l

> <JCHEM_TRADITIONAL_IUPAC>
(1S,2S,5S,7S,10R,11S,14S,15S)-2,14,15-trimethyltetracyclo[8.7.0.0^{2,7}.0^{11,15}]heptadecane-5,14-diol

> <JCHEM_VEBER_RULE>
0

> <DRUGBANK_ID>
DB01513

> <DRUG_GROUPS>
experimental; illicit

> <GENERIC_NAME>
17Alpha-methyl-3beta,17beta-dihydroxy-5alpha-androstane

$$$$
1514
  Mrv0541 02231215322D          

 28 32  0  0  1  0            999 V2000
    7.8449   -1.4339    0.0000 O   0  0  0  0  0  0  0  0  0  0  0  0
    1.5935    0.9073    0.0000 O   0  0  0  0  0  0  0  0  0  0  0  0
    2.0779    0.2394    0.0000 N   0  0  0  0  0  0  0  0  0  0  0  0
    2.0779    1.5752    0.0000 N   0  0  0  0  0  0  0  0  0  0  0  0
    6.4023    0.1051    0.0000 C   0  0  2  0  0  0  0  0  0  0  0  0
    6.4087   -0.7248    0.0000 C   0  0  1  0  0  0  0  0  0  0  0  0
    5.6773    0.5090    0.0000 C   0  0  1  0  0  0  0  0  0  0  0  0
    4.9873    0.1106    0.0000 C   0  0  1  0  0  0  0  0  0  0  0  0
    4.2973    0.5090    0.0000 C   0  0  2  0  0  0  0  0  0  0  0  0
    7.1959   -0.9716    0.0000 C   0  0  2  0  0  0  0  0  0  0  0  0
    5.6900   -1.1398    0.0000 C   0  0  0  0  0  0  0  0  0  0  0  0
    4.9745   -0.7192    0.0000 C   0  0  0  0  0  0  0  0  0  0  0  0
    4.2973    1.3057    0.0000 C   0  0  1  0  0  0  0  0  0  0  0  0
    7.1856    0.3640    0.0000 C   0  0  0  0  0  0  0  0  0  0  0  0
    5.6773    1.3057    0.0000 C   0  0  0  0  0  0  0  0  0  0  0  0
    7.6752   -0.3001    0.0000 C   0  0  0  0  0  0  0  0  0  0  0  0
    4.9873    1.7041    0.0000 C   0  0  0  0  0  0  0  0  0  0  0  0
    3.5850    0.0830    0.0000 C   0  0  0  0  0  0  0  0  0  0  0  0
    6.4149   -1.5215    0.0000 C   0  0  0  0  0  0  0  0  0  0  0  0
    4.2973   -0.2878    0.0000 C   0  0  0  0  0  0  0  0  0  0  0  0
    3.5850    1.7316    0.0000 C   0  0  0  0  0  0  0  0  0  0  0  0
    6.9569   -1.7316    0.0000 C   0  0  0  0  0  0  0  0  0  0  0  0
    2.8631    0.4923    0.0000 C   0  0  0  0  0  0  0  0  0  0  0  0
    2.8631    1.3223    0.0000 C   0  0  0  0  0  0  0  0  0  0  0  0
    6.4624    0.7397    0.0000 H   0  0  0  0  0  0  0  0  0  0  0  0
    6.2268    0.8319    0.0000 H   0  0  0  0  0  0  0  0  0  0  0  0
    4.4329   -0.2039    0.0000 H   0  0  0  0  0  0  0  0  0  0  0  0
    4.3022    1.9430    0.0000 H   0  0  0  0  0  0  0  0  0  0  0  0
 10  1  1  6  0  0  0
  2  3  1  0  0  0  0
  2  4  1  0  0  0  0
  3 23  2  0  0  0  0
  4 24  2  0  0  0  0
  5  6  1  0  0  0  0
  5  7  1  0  0  0  0
  5 14  1  0  0  0  0
  5 25  1  1  0  0  0
  6 10  1  0  0  0  0
  6 11  1  0  0  0  0
  6 19  1  6  0  0  0
  7  8  1  0  0  0  0
  7 15  1  0  0  0  0
  7 26  1  6  0  0  0
  8  9  1  0  0  0  0
  8 12  1  0  0  0  0
  8 27  1  1  0  0  0
  9 13  1  0  0  0  0
  9 18  1  0  0  0  0
  9 20  1  6  0  0  0
 10 16  1  0  0  0  0
 10 22  1  0  0  0  0
 11 12  1  0  0  0  0
 13 17  1  0  0  0  0
 13 21  1  0  0  0  0
 13 28  1  1  0  0  0
 14 16  1  0  0  0  0
 15 17  1  0  0  0  0
 18 23  1  0  0  0  0
 21 24  1  0  0  0  0
 23 24  1  0  0  0  0
M  END
> <DATABASE_ID>
DB01514

> <DATABASE_NAME>
drugbank

> <SMILES>
[H][C@@]12CC[C@](C)(O)[C@@]1(C)CC[C@@]1([H])[C@@]2([H])CC[C@@]2([H])CC3=NON=C3C[C@]12C

> <INCHI_IDENTIFIER>
InChI=1S/C20H30N2O2/c1-18-11-17-16(21-24-22-17)10-12(18)4-5-13-14(18)6-8-19(2)15(13)7-9-20(19,3)23/h12-15,23H,4-11H2,1-3H3/t12-,13+,14-,15-,18-,19-,20-/m0/s1

> <INCHI_KEY>
RGLLOUBXMOGLDQ-IVEVATEUSA-N

> <FORMULA>
C20H30N2O2

> <MOLECULAR_WEIGHT>
330.4644

> <EXACT_MASS>
330.230728214

> <JCHEM_ACCEPTOR_COUNT>
3

> <JCHEM_AVERAGE_POLARIZABILITY>
37.93894494942112

> <JCHEM_BIOAVAILABILITY>
1

> <JCHEM_DONOR_COUNT>
1

> <JCHEM_FORMAL_CHARGE>
0

> <JCHEM_GHOSE_FILTER>
1

> <JCHEM_IUPAC>
(1S,2S,10S,13R,14S,17S,18S)-2,17,18-trimethyl-6-oxa-5,7-diazapentacyclo[11.7.0.0²,¹⁰.0⁴,⁸.0¹⁴,¹⁸]icosa-4,7-dien-17-ol

> <ALOGPS_LOGP>
4.30

> <JCHEM_LOGP>
2.9658172606666664

> <ALOGPS_LOGS>
-4.08

> <JCHEM_MDDR_LIKE_RULE>
0

> <JCHEM_NUMBER_OF_RINGS>
5

> <JCHEM_PHYSIOLOGICAL_CHARGE>
0

> <JCHEM_PKA_STRONGEST_BASIC>
-0.5062172044003591

> <JCHEM_POLAR_SURFACE_AREA>
59.150000000000006

> <JCHEM_REFRACTIVITY>
93.05709999999999

> <JCHEM_ROTATABLE_BOND_COUNT>
0

> <JCHEM_RULE_OF_FIVE>
1

> <ALOGPS_SOLUBILITY>
2.77e-02 g/l

> <JCHEM_TRADITIONAL_IUPAC>
furazabol

> <JCHEM_VEBER_RULE>
0

> <DRUGBANK_ID>
DB01514

> <DRUG_GROUPS>
illicit

> <GENERIC_NAME>
Furazabol

> <INTERNATIONAL_BRANDS>
Miotolon

$$$$
1515
  Mrv0541 02231215322D          

 23 25  0  0  1  0            999 V2000
    4.5079   -0.8211    0.0000 O   0  0  0  0  0  0  0  0  0  0  0  0
    5.5344   -2.1032    0.0000 O   0  0  0  0  0  0  0  0  0  0  0  0
    6.9321   -1.8061    0.0000 O   0  0  0  0  0  0  0  0  0  0  0  0
    3.7934    0.4164    0.0000 O   0  0  0  0  0  0  0  0  0  0  0  0
    6.8483    1.8890    0.0000 N   0  0  0  0  0  0  0  0  0  0  0  0
    7.2425    0.2815    0.0000 C   0  0  1  0  0  0  0  0  0  0  0  0
    7.4560    1.0784    0.0000 C   0  0  1  0  0  0  0  0  0  0  0  0
    5.9761   -0.7442    0.0000 C   0  0  2  0  0  0  0  0  0  0  0  0
    8.7539   -0.3446    0.0000 C   0  0  0  0  0  0  0  0  0  0  0  0
    8.9674    0.4523    0.0000 C   0  0  0  0  0  0  0  0  0  0  0  0
    5.3086    0.4119    0.0000 C   0  0  0  0  0  0  0  0  0  0  0  0
    5.2223   -0.4086    0.0000 C   0  0  2  0  0  0  0  0  0  0  0  0
    6.4358    2.6035    0.0000 C   0  0  0  0  0  0  0  0  0  0  0  0
    6.1476   -1.5511    0.0000 C   0  0  0  0  0  0  0  0  0  0  0  0
    3.7934   -0.4086    0.0000 C   0  0  0  0  0  0  0  0  0  0  0  0
    3.0790   -0.8211    0.0000 C   0  0  0  0  0  0  0  0  0  0  0  0
    3.0790   -1.6461    0.0000 C   0  0  0  0  0  0  0  0  0  0  0  0
    2.3644   -0.4086    0.0000 C   0  0  0  0  0  0  0  0  0  0  0  0
    2.3644   -2.0586    0.0000 C   0  0  0  0  0  0  0  0  0  0  0  0
    1.6500   -0.8211    0.0000 C   0  0  0  0  0  0  0  0  0  0  0  0
    1.6500   -1.6461    0.0000 C   0  0  0  0  0  0  0  0  0  0  0  0
    7.0717   -0.3561    0.0000 H   0  0  0  0  0  0  0  0  0  0  0  0
    7.6269    1.7158    0.0000 H   0  0  0  0  0  0  0  0  0  0  0  0
 12  1  1  1  0  0  0
  1 15  1  0  0  0  0
  2 14  1  0  0  0  0
  3 14  2  0  0  0  0
  4 15  2  0  0  0  0
  5  6  1  0  0  0  0
  5  7  1  0  0  0  0
  5 13  1  0  0  0  0
  6  8  1  0  0  0  0
  6  9  1  0  0  0  0
  6 22  1  1  0  0  0
  7 10  1  0  0  0  0
  7 11  1  0  0  0  0
  7 23  1  6  0  0  0
  8 12  1  0  0  0  0
  8 14  1  1  0  0  0
  9 10  1  0  0  0  0
 11 12  1  0  0  0  0
 15 16  1  0  0  0  0
 16 17  2  0  0  0  0
 16 18  1  0  0  0  0
 17 19  1  0  0  0  0
 18 20  2  0  0  0  0
 19 21  2  0  0  0  0
 20 21  1  0  0  0  0
M  END
> <DATABASE_ID>
DB01515

> <DATABASE_NAME>
drugbank

> <SMILES>
[H][C@]12CC[C@]([H])([C@H]([C@H](C1)OC(=O)C1=CC=CC=C1)C(O)=O)N2C

> <INCHI_IDENTIFIER>
InChI=1S/C16H19NO4/c1-17-11-7-8-12(17)14(15(18)19)13(9-11)21-16(20)10-5-3-2-4-6-10/h2-6,11-14H,7-9H2,1H3,(H,18,19)/t11-,12+,13-,14+/m0/s1

> <INCHI_KEY>
GVGYEFKIHJTNQZ-RFQIPJPRSA-N

> <FORMULA>
C16H19NO4

> <MOLECULAR_WEIGHT>
289.3264

> <EXACT_MASS>
289.131408101

> <JCHEM_ACCEPTOR_COUNT>
4

> <JCHEM_AVERAGE_POLARIZABILITY>
29.928359148499233

> <JCHEM_BIOAVAILABILITY>
1

> <JCHEM_DONOR_COUNT>
1

> <JCHEM_FORMAL_CHARGE>
0

> <JCHEM_GHOSE_FILTER>
0

> <JCHEM_IUPAC>
(1R,2R,3S,5S)-3-(benzoyloxy)-8-methyl-8-azabicyclo[3.2.1]octane-2-carboxylic acid

> <ALOGPS_LOGP>
1.71

> <JCHEM_LOGP>
-0.5948680834280385

> <ALOGPS_LOGS>
-1.88

> <JCHEM_MDDR_LIKE_RULE>
0

> <JCHEM_NUMBER_OF_RINGS>
3

> <JCHEM_PHYSIOLOGICAL_CHARGE>
0

> <JCHEM_PKA_STRONGEST_ACIDIC>
3.146437331171649

> <JCHEM_PKA_STRONGEST_BASIC>
9.54083420293863

> <JCHEM_POLAR_SURFACE_AREA>
66.84

> <JCHEM_REFRACTIVITY>
76.39130000000002

> <JCHEM_ROTATABLE_BOND_COUNT>
4

> <JCHEM_RULE_OF_FIVE>
1

> <ALOGPS_SOLUBILITY>
3.82e+00 g/l

> <JCHEM_TRADITIONAL_IUPAC>
benzoylecgonine

> <JCHEM_VEBER_RULE>
0

> <DRUGBANK_ID>
DB01515

> <DRUG_GROUPS>
experimental; illicit

> <GENERIC_NAME>
Benzoylecgonine

> <SYNONYMS>
(-)-benzoylecgonine; (1R,2R,3S,5S)-8-methyl-3-[(phenylcarbonyl)oxy]-8-azabicyclo[3.2.1]octane-2-carboxylic acid; 3-(Benzoyloxy)-8-methyl-8-azabicyclo[3.2.1]octane-2-carboxylic acid; Ecgonine benzoate; O-benzoyl-(-)-ecgonine; O-benzoylecgonine

$$$$
1516
  Mrv0541 02231215322D          

 16 16  0  0  1  0            999 V2000
    5.2224    1.3654    0.0000 O   0  0  0  0  0  0  0  0  0  0  0  0
    2.3645    1.3654    0.0000 O   0  0  0  0  0  0  0  0  0  0  0  0
    3.7935    2.1904    0.0000 O   0  0  0  0  0  0  0  0  0  0  0  0
    3.0791   -2.3472    0.0000 N   0  0  0  0  0  0  0  0  0  0  0  0
    3.7935   -1.1096    0.0000 C   0  0  0  0  0  0  0  0  0  0  0  0
    3.0791   -1.5222    0.0000 C   0  0  0  0  0  0  0  0  0  0  0  0
    3.7935   -0.2846    0.0000 C   0  0  0  0  0  0  0  0  0  0  0  0
    3.0791    0.1279    0.0000 C   0  0  0  0  0  0  0  0  0  0  0  0
    4.5080    0.1279    0.0000 C   0  0  0  0  0  0  0  0  0  0  0  0
    2.3645   -1.1096    0.0000 C   0  0  0  0  0  0  0  0  0  0  0  0
    4.5080    0.9529    0.0000 C   0  0  0  0  0  0  0  0  0  0  0  0
    3.0791    0.9529    0.0000 C   0  0  0  0  0  0  0  0  0  0  0  0
    3.7935    1.3654    0.0000 C   0  0  0  0  0  0  0  0  0  0  0  0
    5.9370    0.9529    0.0000 C   0  0  0  0  0  0  0  0  0  0  0  0
    1.6500    0.9529    0.0000 C   0  0  0  0  0  0  0  0  0  0  0  0
    4.5080    2.6029    0.0000 C   0  0  0  0  0  0  0  0  0  0  0  0
  1 11  1  0  0  0  0
  1 14  1  0  0  0  0
  2 12  1  0  0  0  0
  2 15  1  0  0  0  0
  3 13  1  0  0  0  0
  3 16  1  0  0  0  0
  4  6  1  0  0  0  0
  5  6  1  0  0  0  0
  5  7  1  0  0  0  0
  6 10  1  0  0  0  0
  7  8  2  0  0  0  0
  7  9  1  0  0  0  0
  8 12  1  0  0  0  0
  9 11  2  0  0  0  0
 11 13  1  0  0  0  0
 12 13  2  0  0  0  0
M  END
> <DATABASE_ID>
DB01516

> <DATABASE_NAME>
drugbank

> <SMILES>
COC1=CC(CC(C)N)=CC(OC)=C1OC

> <INCHI_IDENTIFIER>
InChI=1S/C12H19NO3/c1-8(13)5-9-6-10(14-2)12(16-4)11(7-9)15-3/h6-8H,5,13H2,1-4H3

> <INCHI_KEY>
WGTASENVNYJZBK-UHFFFAOYSA-N

> <FORMULA>
C12H19NO3

> <MOLECULAR_WEIGHT>
225.2842

> <EXACT_MASS>
225.136493479

> <JCHEM_ACCEPTOR_COUNT>
4

> <JCHEM_AVERAGE_POLARIZABILITY>
24.932140252861274

> <JCHEM_BIOAVAILABILITY>
1

> <JCHEM_DONOR_COUNT>
1

> <JCHEM_FORMAL_CHARGE>
0

> <JCHEM_GHOSE_FILTER>
1

> <JCHEM_IUPAC>
1-(3,4,5-trimethoxyphenyl)propan-2-amine

> <ALOGPS_LOGP>
1.54

> <JCHEM_LOGP>
1.3312366846666663

> <ALOGPS_LOGS>
-2.67

> <JCHEM_MDDR_LIKE_RULE>
0

> <JCHEM_NUMBER_OF_RINGS>
1

> <JCHEM_PHYSIOLOGICAL_CHARGE>
1

> <JCHEM_PKA_STRONGEST_BASIC>
9.997025497218267

> <JCHEM_POLAR_SURFACE_AREA>
53.71

> <JCHEM_REFRACTIVITY>
63.094800000000006

> <JCHEM_ROTATABLE_BOND_COUNT>
5

> <JCHEM_RULE_OF_FIVE>
1

> <ALOGPS_SOLUBILITY>
4.79e-01 g/l

> <JCHEM_TRADITIONAL_IUPAC>
trimethoxyamphetamine

> <JCHEM_VEBER_RULE>
0

> <DRUGBANK_ID>
DB01516

> <DRUG_GROUPS>
experimental; illicit

> <GENERIC_NAME>
3,4,5-Trimethoxyamphetamine

$$$$
1518
  Mrv0541 02231215322D          

 27 29  0  0  0  0            999 V2000
    2.8876    3.0780    0.0000 O   0  0  0  0  0  0  0  0  0  0  0  0
    3.8558    3.8905    0.0000 O   0  0  0  0  0  0  0  0  0  0  0  0
    3.4106   -1.3491    0.0000 O   0  0  0  0  0  0  0  0  0  0  0  0
    4.1251    0.7135    0.0000 N   0  0  0  0  0  0  0  0  0  0  0  0
    4.1251    2.3635    0.0000 C   0  0  0  0  0  0  0  0  0  0  0  0
    3.4106    1.9510    0.0000 C   0  0  0  0  0  0  0  0  0  0  0  0
    4.8396    1.9510    0.0000 C   0  0  0  0  0  0  0  0  0  0  0  0
    3.4106    1.1260    0.0000 C   0  0  0  0  0  0  0  0  0  0  0  0
    4.8396    1.1260    0.0000 C   0  0  0  0  0  0  0  0  0  0  0  0
    4.7571    2.8938    0.0000 C   0  0  0  0  0  0  0  0  0  0  0  0
    3.7126    3.0780    0.0000 C   0  0  0  0  0  0  0  0  0  0  0  0
    4.1251   -0.1115    0.0000 C   0  0  0  0  0  0  0  0  0  0  0  0
    4.6138    3.7063    0.0000 C   0  0  0  0  0  0  0  0  0  0  0  0
    5.5323    2.6117    0.0000 C   0  0  0  0  0  0  0  0  0  0  0  0
    3.4106   -0.5241    0.0000 C   0  0  0  0  0  0  0  0  0  0  0  0
    5.2458    4.2366    0.0000 C   0  0  0  0  0  0  0  0  0  0  0  0
    6.1644    3.1420    0.0000 C   0  0  0  0  0  0  0  0  0  0  0  0
    6.0211    3.9545    0.0000 C   0  0  0  0  0  0  0  0  0  0  0  0
    2.4751    3.7925    0.0000 C   0  0  0  0  0  0  0  0  0  0  0  0
    2.6961   -1.7616    0.0000 C   0  0  0  0  0  0  0  0  0  0  0  0
    1.6500    3.7925    0.0000 C   0  0  0  0  0  0  0  0  0  0  0  0
    2.6961   -2.5866    0.0000 C   0  0  0  0  0  0  0  0  0  0  0  0
    3.4106   -2.9991    0.0000 C   0  0  0  0  0  0  0  0  0  0  0  0
    1.9816   -2.9991    0.0000 C   0  0  0  0  0  0  0  0  0  0  0  0
    3.4106   -3.8241    0.0000 C   0  0  0  0  0  0  0  0  0  0  0  0
    1.9816   -3.8241    0.0000 C   0  0  0  0  0  0  0  0  0  0  0  0
    2.6961   -4.2366    0.0000 C   0  0  0  0  0  0  0  0  0  0  0  0
  1 11  1  0  0  0  0
  1 19  1  0  0  0  0
  2 11  2  0  0  0  0
  3 15  1  0  0  0  0
  3 20  1  0  0  0  0
  4  8  1  0  0  0  0
  4  9  1  0  0  0  0
  4 12  1  0  0  0  0
  5  6  1  0  0  0  0
  5  7  1  0  0  0  0
  5 10  1  0  0  0  0
  5 11  1  0  0  0  0
  6  8  1  0  0  0  0
  7  9  1  0  0  0  0
 10 13  2  0  0  0  0
 10 14  1  0  0  0  0
 12 15  1  0  0  0  0
 13 16  1  0  0  0  0
 14 17  2  0  0  0  0
 16 18  2  0  0  0  0
 17 18  1  0  0  0  0
 19 21  1  0  0  0  0
 20 22  1  0  0  0  0
 22 23  2  0  0  0  0
 22 24  1  0  0  0  0
 23 25  1  0  0  0  0
 24 26  2  0  0  0  0
 25 27  2  0  0  0  0
 26 27  1  0  0  0  0
M  END
> <DATABASE_ID>
DB01518

> <DATABASE_NAME>
drugbank

> <SMILES>
CCOC(=O)C1(CCN(CCOCC2=CC=CC=C2)CC1)C1=CC=CC=C1

> <INCHI_IDENTIFIER>
InChI=1S/C23H29NO3/c1-2-27-22(25)23(21-11-7-4-8-12-21)13-15-24(16-14-23)17-18-26-19-20-9-5-3-6-10-20/h3-12H,2,13-19H2,1H3

> <INCHI_KEY>
UVTBZAWTRVBTMK-UHFFFAOYSA-N

> <FORMULA>
C23H29NO3

> <MOLECULAR_WEIGHT>
367.4813

> <EXACT_MASS>
367.214743799

> <JCHEM_ACCEPTOR_COUNT>
3

> <JCHEM_AVERAGE_POLARIZABILITY>
41.89367468003173

> <JCHEM_BIOAVAILABILITY>
1

> <JCHEM_DONOR_COUNT>
0

> <JCHEM_FORMAL_CHARGE>
0

> <JCHEM_GHOSE_FILTER>
1

> <JCHEM_IUPAC>
ethyl 1-[2-(benzyloxy)ethyl]-4-phenylpiperidine-4-carboxylate

> <ALOGPS_LOGP>
3.98

> <JCHEM_LOGP>
4.133298004999999

> <ALOGPS_LOGS>
-4.74

> <JCHEM_MDDR_LIKE_RULE>
1

> <JCHEM_NUMBER_OF_RINGS>
3

> <JCHEM_PHYSIOLOGICAL_CHARGE>
1

> <JCHEM_PKA_STRONGEST_BASIC>
8.109248548307447

> <JCHEM_POLAR_SURFACE_AREA>
38.77

> <JCHEM_REFRACTIVITY>
108.13980000000001

> <JCHEM_ROTATABLE_BOND_COUNT>
9

> <JCHEM_RULE_OF_FIVE>
1

> <ALOGPS_SOLUBILITY>
6.73e-03 g/l

> <JCHEM_TRADITIONAL_IUPAC>
benzethidine

> <JCHEM_VEBER_RULE>
1

> <DRUGBANK_ID>
DB01518

> <DRUG_GROUPS>
experimental; illicit

> <GENERIC_NAME>
Benzethidine

$$$$

  Mrv0541 02231215322D          

 17 19  0  0  0  0            999 V2000
    4.7593   -0.4259    0.0000 S   0  0  0  0  0  0  0  0  0  0  0  0
    2.8876    0.4678    0.0000 N   0  0  0  0  0  0  0  0  0  0  0  0
    3.3001   -0.2467    0.0000 C   0  0  0  0  0  0  0  0  0  0  0  0
    4.0145   -0.6592    0.0000 C   0  0  0  0  0  0  0  0  0  0  0  0
    2.5856   -0.6592    0.0000 C   0  0  0  0  0  0  0  0  0  0  0  0
    4.0145   -1.4842    0.0000 C   0  0  0  0  0  0  0  0  0  0  0  0
    2.5856   -1.4842    0.0000 C   0  0  0  0  0  0  0  0  0  0  0  0
    2.0625    0.4678    0.0000 C   0  0  0  0  0  0  0  0  0  0  0  0
    3.3001    1.1823    0.0000 C   0  0  0  0  0  0  0  0  0  0  0  0
    3.3001   -1.8967    0.0000 C   0  0  0  0  0  0  0  0  0  0  0  0
    4.0753    0.0355    0.0000 C   0  0  0  0  0  0  0  0  0  0  0  0
    1.6500    1.1823    0.0000 C   0  0  0  0  0  0  0  0  0  0  0  0
    2.8876    1.8967    0.0000 C   0  0  0  0  0  0  0  0  0  0  0  0
    2.0625    1.8967    0.0000 C   0  0  0  0  0  0  0  0  0  0  0  0
    4.3027    0.8285    0.0000 C   0  0  0  0  0  0  0  0  0  0  0  0
    5.1272    0.8573    0.0000 C   0  0  0  0  0  0  0  0  0  0  0  0
    5.4094    0.0821    0.0000 C   0  0  0  0  0  0  0  0  0  0  0  0
  1 11  1  0  0  0  0
  1 17  1  0  0  0  0
  2  3  1  0  0  0  0
  2  8  1  0  0  0  0
  2  9  1  0  0  0  0
  3  4  1  0  0  0  0
  3  5  1  0  0  0  0
  3 11  1  0  0  0  0
  4  6  1  0  0  0  0
  5  7  1  0  0  0  0
  6 10  1  0  0  0  0
  7 10  1  0  0  0  0
  8 12  1  0  0  0  0
  9 13  1  0  0  0  0
 11 15  2  0  0  0  0
 12 14  1  0  0  0  0
 13 14  1  0  0  0  0
 15 16  1  0  0  0  0
 16 17  2  0  0  0  0
M  END
> <DATABASE_ID>
DB01520

> <DATABASE_NAME>
drugbank

> <SMILES>
C1CCN(CC1)C1(CCCCC1)C1=CC=CS1

> <INCHI_IDENTIFIER>
InChI=1S/C15H23NS/c1-3-9-15(10-4-1,14-8-7-13-17-14)16-11-5-2-6-12-16/h7-8,13H,1-6,9-12H2

> <INCHI_KEY>
JUZZEWSCNBCFRL-UHFFFAOYSA-N

> <FORMULA>
C15H23NS

> <MOLECULAR_WEIGHT>
249.415

> <EXACT_MASS>
249.155120431

> <JCHEM_ACCEPTOR_COUNT>
1

> <JCHEM_AVERAGE_POLARIZABILITY>
29.276576246660994

> <JCHEM_BIOAVAILABILITY>
1

> <JCHEM_DONOR_COUNT>
0

> <JCHEM_FORMAL_CHARGE>
0

> <JCHEM_GHOSE_FILTER>
1

> <JCHEM_IUPAC>
1-[1-(thiophen-2-yl)cyclohexyl]piperidine

> <ALOGPS_LOGP>
5.04

> <JCHEM_LOGP>
4.400929333

> <ALOGPS_LOGS>
-3.90

> <JCHEM_MDDR_LIKE_RULE>
0

> <JCHEM_NUMBER_OF_RINGS>
3

> <JCHEM_PHYSIOLOGICAL_CHARGE>
1

> <JCHEM_PKA_STRONGEST_BASIC>
10.437333725360158

> <JCHEM_POLAR_SURFACE_AREA>
3.24

> <JCHEM_REFRACTIVITY>
74.53640000000001

> <JCHEM_ROTATABLE_BOND_COUNT>
2

> <JCHEM_RULE_OF_FIVE>
1

> <ALOGPS_SOLUBILITY>
3.13e-02 g/l

> <JCHEM_TRADITIONAL_IUPAC>
tenocyclidine

> <JCHEM_VEBER_RULE>
1

> <DRUGBANK_ID>
DB01520

> <DRUG_GROUPS>
experimental; illicit; investigational

> <GENERIC_NAME>
Tenocyclidine

> <SYNONYMS>
1-[1-(thiophen-2-yl)cyclohexyl]piperidine; TCP; Tenociclidina; Tenocyclidine; Tenocyclidinum; Thienyl cyclohexylpiperidine

> <SALTS>
Tenocyclidine hydrochloride

$$$$
1521
  Mrv0541 02231215322D          

 25 28  0  0  1  0            999 V2000
    3.1440   -2.2607    0.0000 Cl  0  0  0  0  0  0  0  0  0  0  0  0
    7.1353    2.1553    0.0000 O   0  0  0  0  0  0  0  0  0  0  0  0
    1.6498   -1.3980    0.0000 O   0  0  0  0  0  0  0  0  0  0  0  0
    6.0985    0.2949    0.0000 C   0  0  2  0  0  0  0  0  0  0  0  0
    6.0985    1.1197    0.0000 C   0  0  2  0  0  0  0  0  0  0  0  0
    5.3842   -0.1176    0.0000 C   0  0  1  0  0  0  0  0  0  0  0  0
    4.6697    0.2949    0.0000 C   0  0  1  0  0  0  0  0  0  0  0  0
    3.9191   -0.1232    0.0000 C   0  0  2  0  0  0  0  0  0  0  0  0
    5.3842    1.5322    0.0000 C   0  0  0  0  0  0  0  0  0  0  0  0
    4.6697    1.1197    0.0000 C   0  0  0  0  0  0  0  0  0  0  0  0
    6.8790    1.3712    0.0000 C   0  0  2  0  0  0  0  0  0  0  0  0
    6.8790    0.0436    0.0000 C   0  0  0  0  0  0  0  0  0  0  0  0
    5.3974   -0.9767    0.0000 C   0  0  0  0  0  0  0  0  0  0  0  0
    7.3604    0.7073    0.0000 C   0  0  0  0  0  0  0  0  0  0  0  0
    3.9125   -0.9824    0.0000 C   0  0  0  0  0  0  0  0  0  0  0  0
    4.6566   -1.4120    0.0000 C   0  0  0  0  0  0  0  0  0  0  0  0
    6.0985    1.9446    0.0000 C   0  0  0  0  0  0  0  0  0  0  0  0
    3.1546    0.3422    0.0000 C   0  0  0  0  0  0  0  0  0  0  0  0
    3.9254    0.7017    0.0000 C   0  0  0  0  0  0  0  0  0  0  0  0
    2.3726   -0.0934    0.0000 C   0  0  0  0  0  0  0  0  0  0  0  0
    3.1409   -1.4358    0.0000 C   0  0  0  0  0  0  0  0  0  0  0  0
    2.3657   -0.9883    0.0000 C   0  0  0  0  0  0  0  0  0  0  0  0
    6.1683   -0.3614    0.0000 H   0  0  0  0  0  0  0  0  0  0  0  0
    5.9581   -0.4430    0.0000 H   0  0  0  0  0  0  0  0  0  0  0  0
    5.2413    0.6248    0.0000 H   0  0  0  0  0  0  0  0  0  0  0  0
  1 21  1  0  0  0  0
 11  2  1  1  0  0  0
  3 22  2  0  0  0  0
  4  5  1  0  0  0  0
  4  6  1  0  0  0  0
  4 12  1  0  0  0  0
  4 23  1  6  0  0  0
  5  9  1  0  0  0  0
  5 11  1  0  0  0  0
  5 17  1  1  0  0  0
  6  7  1  0  0  0  0
  6 13  1  0  0  0  0
  6 24  1  1  0  0  0
  7  8  1  0  0  0  0
  7 10  1  0  0  0  0
  7 25  1  6  0  0  0
  8 15  1  0  0  0  0
  8 18  1  0  0  0  0
  8 19  1  1  0  0  0
  9 10  1  0  0  0  0
 11 14  1  0  0  0  0
 12 14  1  0  0  0  0
 13 16  1  0  0  0  0
 15 16  1  0  0  0  0
 15 21  2  0  0  0  0
 18 20  1  0  0  0  0
 20 22  1  0  0  0  0
 21 22  1  0  0  0  0
M  END
> <DATABASE_ID>
DB01521

> <DATABASE_NAME>
drugbank

> <SMILES>
[H][C@@]12CC[C@H](O)[C@@]1(C)CC[C@@]1([H])[C@@]2([H])CCC2=C(Cl)C(=O)CC[C@]12C

> <INCHI_IDENTIFIER>
InChI=1S/C19H27ClO2/c1-18-10-8-15(21)17(20)14(18)4-3-11-12-5-6-16(22)19(12,2)9-7-13(11)18/h11-13,16,22H,3-10H2,1-2H3/t11-,12-,13-,16-,18+,19-/m0/s1

> <INCHI_KEY>
KCZCIYZKSLLNNH-FBPKJDBXSA-N

> <FORMULA>
C19H27ClO2

> <MOLECULAR_WEIGHT>
322.869

> <EXACT_MASS>
322.169957815

> <JCHEM_ACCEPTOR_COUNT>
2

> <JCHEM_AVERAGE_POLARIZABILITY>
36.15959965954954

> <JCHEM_BIOAVAILABILITY>
1

> <JCHEM_DONOR_COUNT>
1

> <JCHEM_FORMAL_CHARGE>
0

> <JCHEM_GHOSE_FILTER>
1

> <JCHEM_IUPAC>
(1S,2R,10R,11S,14S,15S)-6-chloro-14-hydroxy-2,15-dimethyltetracyclo[8.7.0.0²,⁷.0¹¹,¹⁵]heptadec-6-en-5-one

> <ALOGPS_LOGP>
3.57

> <JCHEM_LOGP>
3.7543756143333336

> <ALOGPS_LOGS>
-4.32

> <JCHEM_MDDR_LIKE_RULE>
0

> <JCHEM_NUMBER_OF_RINGS>
4

> <JCHEM_PHYSIOLOGICAL_CHARGE>
0

> <JCHEM_PKA>
19.377705208103595

> <JCHEM_PKA_STRONGEST_ACIDIC>
19.309576510435726

> <JCHEM_PKA_STRONGEST_BASIC>
-0.8839901671797955

> <JCHEM_POLAR_SURFACE_AREA>
37.3

> <JCHEM_REFRACTIVITY>
89.22109999999999

> <JCHEM_ROTATABLE_BOND_COUNT>
0

> <JCHEM_RULE_OF_FIVE>
1

> <ALOGPS_SOLUBILITY>
1.53e-02 g/l

> <JCHEM_TRADITIONAL_IUPAC>
clostebol

> <JCHEM_VEBER_RULE>
1

> <DRUGBANK_ID>
DB01521

> <DRUG_GROUPS>
experimental; illicit

> <GENERIC_NAME>
Clostebol

$$$$
1522
  Mrv0541 02231215322D          

 26 27  0  0  1  0            999 V2000
    5.8950   -0.7144    0.0000 O   0  0  0  0  0  0  0  0  0  0  0  0
    7.1325    0.0000    0.0000 O   0  0  0  0  0  0  0  0  0  0  0  0
    2.4253   -0.2482    0.0000 N   0  0  0  0  0  0  0  0  0  0  0  0
    4.6575    0.0000    0.0000 C   0  0  0  0  0  0  0  0  0  0  0  0
    3.8325    0.0000    0.0000 C   0  0  0  0  0  0  0  0  0  0  0  0
    5.4825    0.0000    0.0000 C   0  0  2  0  0  0  0  0  0  0  0  0
    3.0572    0.2822    0.0000 C   0  0  1  0  0  0  0  0  0  0  0  0
    4.6575    0.8250    0.0000 C   0  0  0  0  0  0  0  0  0  0  0  0
    4.6575   -0.8250    0.0000 C   0  0  0  0  0  0  0  0  0  0  0  0
    5.8950    0.7144    0.0000 C   0  0  0  0  0  0  0  0  0  0  0  0
    2.9140    1.0946    0.0000 C   0  0  0  0  0  0  0  0  0  0  0  0
    3.9430    1.2375    0.0000 C   0  0  0  0  0  0  0  0  0  0  0  0
    5.3720   -1.2375    0.0000 C   0  0  0  0  0  0  0  0  0  0  0  0
    5.3720    1.2375    0.0000 C   0  0  0  0  0  0  0  0  0  0  0  0
    3.9430   -1.2375    0.0000 C   0  0  0  0  0  0  0  0  0  0  0  0
    6.7200    0.7144    0.0000 C   0  0  0  0  0  0  0  0  0  0  0  0
    1.6500    0.0341    0.0000 C   0  0  0  0  0  0  0  0  0  0  0  0
    2.5685   -1.0605    0.0000 C   0  0  0  0  0  0  0  0  0  0  0  0
    3.9430    2.0625    0.0000 C   0  0  0  0  0  0  0  0  0  0  0  0
    5.3720   -2.0625    0.0000 C   0  0  0  0  0  0  0  0  0  0  0  0
    5.3720    2.0625    0.0000 C   0  0  0  0  0  0  0  0  0  0  0  0
    3.9430   -2.0625    0.0000 C   0  0  0  0  0  0  0  0  0  0  0  0
    6.7200   -0.7144    0.0000 C   0  0  0  0  0  0  0  0  0  0  0  0
    4.6575    2.4750    0.0000 C   0  0  0  0  0  0  0  0  0  0  0  0
    4.6575   -2.4750    0.0000 C   0  0  0  0  0  0  0  0  0  0  0  0
    7.1325   -1.4290    0.0000 C   0  0  0  0  0  0  0  0  0  0  0  0
  6  1  1  6  0  0  0
  1 23  1  0  0  0  0
  2 23  2  0  0  0  0
  7  3  1  6  0  0  0
  3 17  1  0  0  0  0
  3 18  1  0  0  0  0
  4  5  1  0  0  0  0
  4  6  1  0  0  0  0
  4  8  1  0  0  0  0
  4  9  1  0  0  0  0
  5  7  1  0  0  0  0
  6 10  1  0  0  0  0
  7 11  1  0  0  0  0
  8 12  2  0  0  0  0
  8 14  1  0  0  0  0
  9 13  2  0  0  0  0
  9 15  1  0  0  0  0
 10 16  1  0  0  0  0
 12 19  1  0  0  0  0
 13 20  1  0  0  0  0
 14 21  2  0  0  0  0
 15 22  2  0  0  0  0
 19 24  2  0  0  0  0
 20 25  2  0  0  0  0
 21 24  1  0  0  0  0
 22 25  1  0  0  0  0
 23 26  1  0  0  0  0
M  END
> <DATABASE_ID>
DB01522

> <DATABASE_NAME>
drugbank

> <SMILES>
CC[C@H](OC(C)=O)C(C[C@@H](C)N(C)C)(C1=CC=CC=C1)C1=CC=CC=C1

> <INCHI_IDENTIFIER>
InChI=1S/C23H31NO2/c1-6-22(26-19(3)25)23(17-18(2)24(4)5,20-13-9-7-10-14-20)21-15-11-8-12-16-21/h7-16,18,22H,6,17H2,1-5H3/t18-,22+/m1/s1

> <INCHI_KEY>
XBMIVRRWGCYBTQ-GCJKJVERSA-N

> <FORMULA>
C23H31NO2

> <MOLECULAR_WEIGHT>
353.4977

> <EXACT_MASS>
353.235479241

> <JCHEM_ACCEPTOR_COUNT>
2

> <JCHEM_AVERAGE_POLARIZABILITY>
40.926956075308745

> <JCHEM_BIOAVAILABILITY>
1

> <JCHEM_DONOR_COUNT>
0

> <JCHEM_FORMAL_CHARGE>
0

> <JCHEM_GHOSE_FILTER>
1

> <JCHEM_IUPAC>
(3S,6R)-6-(dimethylamino)-4,4-diphenylheptan-3-yl acetate

> <ALOGPS_LOGP>
4.78

> <JCHEM_LOGP>
4.884769339999999

> <ALOGPS_LOGS>
-5.30

> <JCHEM_MDDR_LIKE_RULE>
0

> <JCHEM_NUMBER_OF_RINGS>
2

> <JCHEM_PHYSIOLOGICAL_CHARGE>
1

> <JCHEM_PKA_STRONGEST_BASIC>
9.869489670661055

> <JCHEM_POLAR_SURFACE_AREA>
29.54

> <JCHEM_REFRACTIVITY>
117.85760000000002

> <JCHEM_ROTATABLE_BOND_COUNT>
9

> <JCHEM_RULE_OF_FIVE>
1

> <ALOGPS_SOLUBILITY>
1.79e-03 g/l

> <JCHEM_TRADITIONAL_IUPAC>
betacetylmethadol

> <JCHEM_VEBER_RULE>
1

> <DRUGBANK_ID>
DB01522

> <DRUG_GROUPS>
experimental; illicit

> <GENERIC_NAME>
Betacetylmethadol

$$$$
1523
  Mrv0541 02231215322D          

 27 29  0  0  0  0            999 V2000
    8.2451   -3.3294    0.0000 Cl  0  0  0  0  0  0  0  0  0  0  0  0
    1.6500   -0.8839    0.0000 O   0  5  0  0  0  0  0  0  0  0  0  0
    2.3645   -2.1215    0.0000 O   0  0  0  0  0  0  0  0  0  0  0  0
    5.2886    0.1926    0.0000 N   0  0  0  0  0  0  0  0  0  0  0  0
    6.6086    1.9310    0.0000 N   0  0  0  0  0  0  0  0  0  0  0  0
    5.2886   -1.1353    0.0000 N   0  0  0  0  0  0  0  0  0  0  0  0
    2.3645   -1.2964    0.0000 N   0  3  0  0  0  0  0  0  0  0  0  0
    5.5449    0.9767    0.0000 C   0  0  0  0  0  0  0  0  0  0  0  0
    6.3522    1.1469    0.0000 C   0  0  0  0  0  0  0  0  0  0  0  0
    5.7701   -0.4714    0.0000 C   0  0  0  0  0  0  0  0  0  0  0  0
    4.5080   -0.0589    0.0000 C   0  0  0  0  0  0  0  0  0  0  0  0
    4.5080   -0.8839    0.0000 C   0  0  0  0  0  0  0  0  0  0  0  0
    6.5951   -0.4714    0.0000 C   0  0  0  0  0  0  0  0  0  0  0  0
    7.4158    2.1012    0.0000 C   0  0  0  0  0  0  0  0  0  0  0  0
    6.0575    2.5451    0.0000 C   0  0  0  0  0  0  0  0  0  0  0  0
    3.7935    0.3536    0.0000 C   0  0  0  0  0  0  0  0  0  0  0  0
    3.7935   -1.2964    0.0000 C   0  0  0  0  0  0  0  0  0  0  0  0
    7.0076   -1.1859    0.0000 C   0  0  0  0  0  0  0  0  0  0  0  0
    7.6721    2.8854    0.0000 C   0  0  0  0  0  0  0  0  0  0  0  0
    6.3139    3.3294    0.0000 C   0  0  0  0  0  0  0  0  0  0  0  0
    3.0791   -0.8839    0.0000 C   0  0  0  0  0  0  0  0  0  0  0  0
    3.0791   -0.0589    0.0000 C   0  0  0  0  0  0  0  0  0  0  0  0
    7.8326   -1.1859    0.0000 C   0  0  0  0  0  0  0  0  0  0  0  0
    6.5951   -1.9003    0.0000 C   0  0  0  0  0  0  0  0  0  0  0  0
    8.2451   -1.9003    0.0000 C   0  0  0  0  0  0  0  0  0  0  0  0
    7.0076   -2.6148    0.0000 C   0  0  0  0  0  0  0  0  0  0  0  0
    7.8326   -2.6148    0.0000 C   0  0  0  0  0  0  0  0  0  0  0  0
  1 27  1  0  0  0  0
  2  7  1  0  0  0  0
  3  7  2  0  0  0  0
  4  8  1  0  0  0  0
  4 10  1  0  0  0  0
  4 11  1  0  0  0  0
  5  9  1  0  0  0  0
  5 14  1  0  0  0  0
  5 15  1  0  0  0  0
  6 10  2  0  0  0  0
  6 12  1  0  0  0  0
  7 21  1  0  0  0  0
  8  9  1  0  0  0  0
 10 13  1  0  0  0  0
 11 12  2  0  0  0  0
 11 16  1  0  0  0  0
 12 17  1  0  0  0  0
 13 18  1  0  0  0  0
 14 19  1  0  0  0  0
 15 20  1  0  0  0  0
 16 22  2  0  0  0  0
 17 21  2  0  0  0  0
 18 23  2  0  0  0  0
 18 24  1  0  0  0  0
 21 22  1  0  0  0  0
 23 25  1  0  0  0  0
 24 26  2  0  0  0  0
 25 27  2  0  0  0  0
 26 27  1  0  0  0  0
M  CHG  2   2  -1   7   1
M  END
> <DATABASE_ID>
DB01523

> <DATABASE_NAME>
drugbank

> <SMILES>
CCN(CC)CCN1C(CC2=CC=C(Cl)C=C2)=NC2=C1C=CC(=C2)[N+]([O-])=O

> <INCHI_IDENTIFIER>
InChI=1S/C20H23ClN4O2/c1-3-23(4-2)11-12-24-19-10-9-17(25(26)27)14-18(19)22-20(24)13-15-5-7-16(21)8-6-15/h5-10,14H,3-4,11-13H2,1-2H3

> <INCHI_KEY>
GPZLDQAEBHTMPG-UHFFFAOYSA-N

> <FORMULA>
C20H23ClN4O2

> <MOLECULAR_WEIGHT>
386.875

> <EXACT_MASS>
386.150953707

> <JCHEM_ACCEPTOR_COUNT>
4

> <JCHEM_AVERAGE_POLARIZABILITY>
41.85281346032163

> <JCHEM_BIOAVAILABILITY>
1

> <JCHEM_DONOR_COUNT>
0

> <JCHEM_FORMAL_CHARGE>
0

> <JCHEM_GHOSE_FILTER>
1

> <JCHEM_IUPAC>
(2-{2-[(4-chlorophenyl)methyl]-5-nitro-1H-1,3-benzodiazol-1-yl}ethyl)diethylamine

> <ALOGPS_LOGP>
4.95

> <JCHEM_LOGP>
4.716873912333333

> <ALOGPS_LOGS>
-4.54

> <JCHEM_MDDR_LIKE_RULE>
1

> <JCHEM_NUMBER_OF_RINGS>
3

> <JCHEM_PHYSIOLOGICAL_CHARGE>
1

> <JCHEM_PKA_STRONGEST_BASIC>
9.63125621108188

> <JCHEM_POLAR_SURFACE_AREA>
66.88

> <JCHEM_REFRACTIVITY>
108.67360000000001

> <JCHEM_ROTATABLE_BOND_COUNT>
8

> <JCHEM_RULE_OF_FIVE>
1

> <ALOGPS_SOLUBILITY>
1.11e-02 g/l

> <JCHEM_TRADITIONAL_IUPAC>
clonitazene

> <JCHEM_VEBER_RULE>
0

> <DRUGBANK_ID>
DB01523

> <DRUG_GROUPS>
experimental; illicit

> <GENERIC_NAME>
Clonitazene

$$$$
HMDB03818.mol
  Mrv0541 02231219472D          

 24 27  0  0  0  0            999 V2000
   -2.0637   -0.5198    0.0000 C   0  0  0  0  0  0  0  0  0  0  0  0
   -2.0637   -1.3448    0.0000 C   0  0  1  0  0  0  0  0  0  0  0  0
   -1.3492   -1.7573    0.0000 C   0  0  0  0  0  0  0  0  0  0  0  0
   -0.6348   -1.3448    0.0000 C   0  0  0  0  0  0  0  0  0  0  0  0
   -0.6348   -0.5198    0.0000 C   0  0  2  0  0  0  0  0  0  0  0  0
   -1.3492   -0.1073    0.0000 C   0  0  0  0  0  0  0  0  0  0  0  0
    0.0797   -1.7573    0.0000 C   0  0  0  0  0  0  0  0  0  0  0  0
    0.7942   -1.3448    0.0000 C   0  0  0  0  0  0  0  0  0  0  0  0
    0.7942   -0.5198    0.0000 C   0  0  2  0  0  0  0  0  0  0  0  0
    0.0797   -0.1073    0.0000 C   0  0  2  0  0  0  0  0  0  0  0  0
    1.5086   -0.1073    0.0000 C   0  0  1  0  0  0  0  0  0  0  0  0
    1.5086    0.7177    0.0000 C   0  0  2  0  0  0  0  0  0  0  0  0
    0.7942    1.1302    0.0000 C   0  0  0  0  0  0  0  0  0  0  0  0
    0.0797    0.7177    0.0000 C   0  0  0  0  0  0  0  0  0  0  0  0
    2.2933   -0.3622    0.0000 C   0  0  0  0  0  0  0  0  0  0  0  0
    2.7782    0.3052    0.0000 C   0  0  0  0  0  0  0  0  0  0  0  0
    2.2933    0.9727    0.0000 C   0  0  2  0  0  0  0  0  0  0  0  0
   -0.6348    0.3052    0.0000 C   0  0  0  0  0  0  0  0  0  0  0  0
   -2.7782   -1.7573    0.0000 O   0  0  0  0  0  0  0  0  0  0  0  0
    1.5949    1.5382    0.0000 C   0  0  0  0  0  0  0  0  0  0  0  0
    2.5482    1.7573    0.0000 O   0  0  0  0  0  0  0  0  0  0  0  0
    0.7942    0.3052    0.0000 H   0  0  0  0  0  0  0  0  0  0  0  0
    0.0797   -0.9323    0.0000 H   0  0  0  0  0  0  0  0  0  0  0  0
    1.5086   -0.9323    0.0000 H   0  0  0  0  0  0  0  0  0  0  0  0
  1  2  1  0  0  0  0
  2  3  1  0  0  0  0
  3  4  1  0  0  0  0
  4  5  1  0  0  0  0
  5  6  1  0  0  0  0
  6  1  1  0  0  0  0
  4  7  2  0  0  0  0
  7  8  1  0  0  0  0
  8  9  1  0  0  0  0
  9 10  1  0  0  0  0
 10  5  1  0  0  0  0
  9 11  1  0  0  0  0
 11 12  1  0  0  0  0
 12 13  1  0  0  0  0
 13 14  1  0  0  0  0
 14 10  1  0  0  0  0
 11 15  1  0  0  0  0
 15 16  1  0  0  0  0
 16 17  1  0  0  0  0
 17 12  1  0  0  0  0
  5 18  1  1  0  0  0
  2 19  1  1  0  0  0
 12 20  1  1  0  0  0
 17 21  1  1  0  0  0
  9 22  1  1  0  0  0
 10 23  1  6  0  0  0
 11 24  1  6  0  0  0
M  END
> <DATABASE_ID>
DB01524

> <DATABASE_NAME>
drugbank

> <SMILES>
[H][C@@]12CC[C@H](O)[C@@]1(C)CC[C@@]1([H])[C@@]2([H])CC=C2C[C@@H](O)CC[C@]12C

> <INCHI_IDENTIFIER>
InChI=1S/C19H30O2/c1-18-9-7-13(20)11-12(18)3-4-14-15-5-6-17(21)19(15,2)10-8-16(14)18/h3,13-17,20-21H,4-11H2,1-2H3/t13-,14-,15-,16-,17-,18-,19-/m0/s1

> <INCHI_KEY>
QADHLRWLCPCEKT-LOVVWNRFSA-N

> <FORMULA>
C19H30O2

> <MOLECULAR_WEIGHT>
290.4403

> <EXACT_MASS>
290.224580204

> <JCHEM_ACCEPTOR_COUNT>
2

> <JCHEM_AVERAGE_POLARIZABILITY>
34.68266542275768

> <JCHEM_BIOAVAILABILITY>
1

> <JCHEM_DONOR_COUNT>
2

> <JCHEM_FORMAL_CHARGE>
0

> <JCHEM_GHOSE_FILTER>
1

> <JCHEM_IUPAC>
(1S,2R,5S,10R,11S,14S,15S)-2,15-dimethyltetracyclo[8.7.0.0²,⁷.0¹¹,¹⁵]heptadec-7-ene-5,14-diol

> <ALOGPS_LOGP>
3.42

> <JCHEM_LOGP>
2.798177349666666

> <ALOGPS_LOGS>
-3.72

> <JCHEM_MDDR_LIKE_RULE>
0

> <JCHEM_NUMBER_OF_RINGS>
4

> <JCHEM_PHYSIOLOGICAL_CHARGE>
0

> <JCHEM_PKA>
19.377698709764868

> <JCHEM_PKA_STRONGEST_ACIDIC>
18.204289505503816

> <JCHEM_PKA_STRONGEST_BASIC>
-0.7678099996325817

> <JCHEM_POLAR_SURFACE_AREA>
40.46

> <JCHEM_REFRACTIVITY>
85.4812

> <JCHEM_ROTATABLE_BOND_COUNT>
0

> <JCHEM_RULE_OF_FIVE>
1

> <ALOGPS_SOLUBILITY>
5.50e-02 g/l

> <JCHEM_TRADITIONAL_IUPAC>
5-androstenediol

> <JCHEM_VEBER_RULE>
0

> <DRUGBANK_ID>
DB01524

> <DRUG_GROUPS>
experimental; illicit

> <GENERIC_NAME>
Androstenediol

> <SYNONYMS>
5-andendiol; 5-androstenediol; androst-5-ene-3beta,17beta-diol; androst-5-enediol; Androstenediol; hermaphrodiol

> <INTERNATIONAL_BRANDS>
Tetrabol

$$$$
1525
  Mrv0541 02231215322D          

 15 16  0  0  1  0            999 V2000
    2.0928   -0.8211    0.0000 O   0  0  0  0  0  0  0  0  0  0  0  0
    3.1194   -2.1030    0.0000 O   0  0  0  0  0  0  0  0  0  0  0  0
    4.5170   -1.8060    0.0000 O   0  0  0  0  0  0  0  0  0  0  0  0
    4.4332    1.8889    0.0000 N   0  0  0  0  0  0  0  0  0  0  0  0
    4.8273    0.2815    0.0000 C   0  0  1  0  0  0  0  0  0  0  0  0
    5.0408    1.0783    0.0000 C   0  0  1  0  0  0  0  0  0  0  0  0
    3.5609   -0.7441    0.0000 C   0  0  2  0  0  0  0  0  0  0  0  0
    6.3385   -0.3446    0.0000 C   0  0  0  0  0  0  0  0  0  0  0  0
    6.5520    0.4523    0.0000 C   0  0  0  0  0  0  0  0  0  0  0  0
    2.8935    0.4119    0.0000 C   0  0  0  0  0  0  0  0  0  0  0  0
    2.8073   -0.4086    0.0000 C   0  0  2  0  0  0  0  0  0  0  0  0
    4.0207    2.6033    0.0000 C   0  0  0  0  0  0  0  0  0  0  0  0
    3.7324   -1.5510    0.0000 C   0  0  0  0  0  0  0  0  0  0  0  0
    4.6565   -0.3560    0.0000 H   0  0  0  0  0  0  0  0  0  0  0  0
    5.2116    1.7157    0.0000 H   0  0  0  0  0  0  0  0  0  0  0  0
 11  1  1  1  0  0  0
  2 13  1  0  0  0  0
  3 13  2  0  0  0  0
  4  5  1  0  0  0  0
  4  6  1  0  0  0  0
  4 12  1  0  0  0  0
  5  7  1  0  0  0  0
  5  8  1  0  0  0  0
  5 14  1  1  0  0  0
  6  9  1  0  0  0  0
  6 10  1  0  0  0  0
  6 15  1  6  0  0  0
  7 11  1  0  0  0  0
  7 13  1  1  0  0  0
  8  9  1  0  0  0  0
 10 11  1  0  0  0  0
M  END
> <DATABASE_ID>
DB01525

> <DATABASE_NAME>
drugbank

> <SMILES>
[H][C@]12CC[C@]([H])([C@H]([C@@H](O)C1)C(O)=O)N2C

> <INCHI_IDENTIFIER>
InChI=1S/C9H15NO3/c1-10-5-2-3-6(10)8(9(12)13)7(11)4-5/h5-8,11H,2-4H2,1H3,(H,12,13)/t5-,6+,7-,8+/m0/s1

> <INCHI_KEY>
PHMBVCPLDPDESM-FKSUSPILSA-N

> <FORMULA>
C9H15NO3

> <MOLECULAR_WEIGHT>
185.2203

> <EXACT_MASS>
185.105193351

> <JCHEM_ACCEPTOR_COUNT>
4

> <JCHEM_AVERAGE_POLARIZABILITY>
18.69649076845571

> <JCHEM_BIOAVAILABILITY>
1

> <JCHEM_DONOR_COUNT>
2

> <JCHEM_FORMAL_CHARGE>
0

> <JCHEM_GHOSE_FILTER>
0

> <JCHEM_IUPAC>
(1R,2R,3S,5S)-3-hydroxy-8-methyl-8-azabicyclo[3.2.1]octane-2-carboxylic acid

> <ALOGPS_LOGP>
-0.69

> <JCHEM_LOGP>
-3.0901585696393723

> <ALOGPS_LOGS>
0.75

> <JCHEM_MDDR_LIKE_RULE>
0

> <JCHEM_NUMBER_OF_RINGS>
2

> <JCHEM_PHYSIOLOGICAL_CHARGE>
0

> <JCHEM_PKA>
14.871788470590886

> <JCHEM_PKA_STRONGEST_ACIDIC>
3.4801822466094126

> <JCHEM_PKA_STRONGEST_BASIC>
9.69054450259908

> <JCHEM_POLAR_SURFACE_AREA>
60.77

> <JCHEM_REFRACTIVITY>
46.5693

> <JCHEM_ROTATABLE_BOND_COUNT>
1

> <JCHEM_RULE_OF_FIVE>
1

> <ALOGPS_SOLUBILITY>
1.05e+03 g/l

> <JCHEM_TRADITIONAL_IUPAC>
ecgonine

> <JCHEM_VEBER_RULE>
0

> <DRUGBANK_ID>
DB01525

> <DRUG_GROUPS>
experimental; illicit

> <GENERIC_NAME>
Ecgonine

$$$$
1526
  Mrv0541 02231215322D          

 24 27  0  0  1  0            999 V2000
    7.5775    1.7429    0.0000 O   0  0  0  0  0  0  0  0  0  0  0  0
    2.0917   -1.8105    0.0000 O   0  0  0  0  0  0  0  0  0  0  0  0
    6.5406   -0.1176    0.0000 C   0  0  1  0  0  0  0  0  0  0  0  0
    5.8262   -0.5300    0.0000 C   0  0  1  0  0  0  0  0  0  0  0  0
    6.5406    0.7074    0.0000 C   0  0  2  0  0  0  0  0  0  0  0  0
    5.1119   -0.1176    0.0000 C   0  0  1  0  0  0  0  0  0  0  0  0
    4.3612   -0.5356    0.0000 C   0  0  2  0  0  0  0  0  0  0  0  0
    5.8262    1.1199    0.0000 C   0  0  0  0  0  0  0  0  0  0  0  0
    5.1119    0.7074    0.0000 C   0  0  0  0  0  0  0  0  0  0  0  0
    7.3211    0.9588    0.0000 C   0  0  2  0  0  0  0  0  0  0  0  0
    7.3211   -0.3689    0.0000 C   0  0  0  0  0  0  0  0  0  0  0  0
    5.8395   -1.3891    0.0000 C   0  0  0  0  0  0  0  0  0  0  0  0
    7.8026    0.2949    0.0000 C   0  0  0  0  0  0  0  0  0  0  0  0
    4.3545   -1.3948    0.0000 C   0  0  0  0  0  0  0  0  0  0  0  0
    5.0987   -1.8245    0.0000 C   0  0  0  0  0  0  0  0  0  0  0  0
    3.5966   -0.0703    0.0000 C   0  0  0  0  0  0  0  0  0  0  0  0
    6.5406    1.5323    0.0000 C   0  0  0  0  0  0  0  0  0  0  0  0
    4.3676    0.2893    0.0000 C   0  0  0  0  0  0  0  0  0  0  0  0
    2.8147   -0.5058    0.0000 C   0  0  0  0  0  0  0  0  0  0  0  0
    3.5829   -1.8483    0.0000 C   0  0  0  0  0  0  0  0  0  0  0  0
    2.8078   -1.4008    0.0000 C   0  0  1  0  0  0  0  0  0  0  0  0
    6.6105   -0.7738    0.0000 H   0  0  0  0  0  0  0  0  0  0  0  0
    6.4003   -0.8555    0.0000 H   0  0  0  0  0  0  0  0  0  0  0  0
    5.6833    0.2124    0.0000 H   0  0  0  0  0  0  0  0  0  0  0  0
 10  1  1  1  0  0  0
 21  2  1  1  0  0  0
  3  4  1  0  0  0  0
  3  5  1  0  0  0  0
  3 11  1  0  0  0  0
  3 22  1  6  0  0  0
  4  6  1  0  0  0  0
  4 12  1  0  0  0  0
  4 23  1  1  0  0  0
  5  8  1  0  0  0  0
  5 10  1  0  0  0  0
  5 17  1  1  0  0  0
  6  7  1  0  0  0  0
  6  9  1  0  0  0  0
  6 24  1  6  0  0  0
  7 14  1  0  0  0  0
  7 16  1  0  0  0  0
  7 18  1  1  0  0  0
  8  9  1  0  0  0  0
 10 13  1  0  0  0  0
 11 13  1  0  0  0  0
 12 15  1  0  0  0  0
 14 15  1  0  0  0  0
 14 20  2  0  0  0  0
 16 19  1  0  0  0  0
 19 21  1  0  0  0  0
 20 21  1  0  0  0  0
M  END
> <DATABASE_ID>
DB01526

> <DATABASE_NAME>
drugbank

> <SMILES>
[H][C@@]12CC[C@H](O)[C@@]1(C)CC[C@@]1([H])[C@@]2([H])CCC2=C[C@@H](O)CC[C@]12C

> <INCHI_IDENTIFIER>
InChI=1S/C19H30O2/c1-18-9-7-13(20)11-12(18)3-4-14-15-5-6-17(21)19(15,2)10-8-16(14)18/h11,13-17,20-21H,3-10H2,1-2H3/t13-,14-,15-,16-,17-,18-,19-/m0/s1

> <INCHI_KEY>
BTTWKVFKBPAFDK-LOVVWNRFSA-N

> <FORMULA>
C19H30O2

> <MOLECULAR_WEIGHT>
290.4403

> <EXACT_MASS>
290.224580204

> <JCHEM_ACCEPTOR_COUNT>
2

> <JCHEM_AVERAGE_POLARIZABILITY>
34.51560656073626

> <JCHEM_BIOAVAILABILITY>
1

> <JCHEM_DONOR_COUNT>
2

> <JCHEM_FORMAL_CHARGE>
0

> <JCHEM_GHOSE_FILTER>
1

> <JCHEM_IUPAC>
(1S,2R,5S,10R,11S,14S,15S)-2,15-dimethyltetracyclo[8.7.0.0²,⁷.0¹¹,¹⁵]heptadec-6-ene-5,14-diol

> <ALOGPS_LOGP>
3.10

> <JCHEM_LOGP>
2.954084809666667

> <ALOGPS_LOGS>
-3.78

> <JCHEM_MDDR_LIKE_RULE>
0

> <JCHEM_NUMBER_OF_RINGS>
4

> <JCHEM_PHYSIOLOGICAL_CHARGE>
0

> <JCHEM_PKA>
19.37770520810813

> <JCHEM_PKA_STRONGEST_ACIDIC>
17.504415926529536

> <JCHEM_PKA_STRONGEST_BASIC>
-0.8227000810590906

> <JCHEM_POLAR_SURFACE_AREA>
40.46

> <JCHEM_REFRACTIVITY>
85.3272

> <JCHEM_ROTATABLE_BOND_COUNT>
0

> <JCHEM_RULE_OF_FIVE>
1

> <ALOGPS_SOLUBILITY>
4.81e-02 g/l

> <JCHEM_TRADITIONAL_IUPAC>
4-androstenediol

> <JCHEM_VEBER_RULE>
0

> <DRUGBANK_ID>
DB01526

> <DRUG_GROUPS>
experimental; illicit

> <GENERIC_NAME>
4-Androstenediol

$$$$
1528
  Mrv0541 02231215322D          

 15 15  0  0  1  0            999 V2000
    2.3645    0.0784    0.0000 O   0  0  0  0  0  0  0  0  0  0  0  0
    5.2224   -1.5717    0.0000 O   0  0  0  0  0  0  0  0  0  0  0  0
    4.5080    2.1409    0.0000 N   0  0  0  0  0  0  0  0  0  0  0  0
    3.7935    0.9034    0.0000 C   0  0  0  0  0  0  0  0  0  0  0  0
    4.5080    1.3159    0.0000 C   0  0  0  0  0  0  0  0  0  0  0  0
    3.7935    0.0784    0.0000 C   0  0  0  0  0  0  0  0  0  0  0  0
    3.0791   -0.3341    0.0000 C   0  0  0  0  0  0  0  0  0  0  0  0
    4.5080   -0.3341    0.0000 C   0  0  0  0  0  0  0  0  0  0  0  0
    5.2224    0.9034    0.0000 C   0  0  0  0  0  0  0  0  0  0  0  0
    3.7935   -1.5717    0.0000 C   0  0  0  0  0  0  0  0  0  0  0  0
    4.5080   -1.1592    0.0000 C   0  0  0  0  0  0  0  0  0  0  0  0
    3.0791   -1.1592    0.0000 C   0  0  0  0  0  0  0  0  0  0  0  0
    3.7935   -2.3967    0.0000 C   0  0  0  0  0  0  0  0  0  0  0  0
    1.6500   -0.3341    0.0000 C   0  0  0  0  0  0  0  0  0  0  0  0
    5.9370   -1.1592    0.0000 C   0  0  0  0  0  0  0  0  0  0  0  0
  1  7  1  0  0  0  0
  1 14  1  0  0  0  0
  2 11  1  0  0  0  0
  2 15  1  0  0  0  0
  3  5  1  0  0  0  0
  4  5  1  0  0  0  0
  4  6  1  0  0  0  0
  5  9  1  0  0  0  0
  6  7  2  0  0  0  0
  6  8  1  0  0  0  0
  7 12  1  0  0  0  0
  8 11  2  0  0  0  0
 10 11  1  0  0  0  0
 10 12  2  0  0  0  0
 10 13  1  0  0  0  0
M  END
> <DATABASE_ID>
DB01528

> <DATABASE_NAME>
drugbank

> <SMILES>
COC1=CC(CC(C)N)=C(OC)C=C1C

> <INCHI_IDENTIFIER>
InChI=1S/C12H19NO2/c1-8-5-12(15-4)10(6-9(2)13)7-11(8)14-3/h5,7,9H,6,13H2,1-4H3

> <INCHI_KEY>
NTJQREUGJKIARY-UHFFFAOYSA-N

> <FORMULA>
C12H19NO2

> <MOLECULAR_WEIGHT>
209.2848

> <EXACT_MASS>
209.141578857

> <JCHEM_ACCEPTOR_COUNT>
3

> <JCHEM_AVERAGE_POLARIZABILITY>
24.088797730117523

> <JCHEM_BIOAVAILABILITY>
1

> <JCHEM_DONOR_COUNT>
1

> <JCHEM_FORMAL_CHARGE>
0

> <JCHEM_GHOSE_FILTER>
1

> <JCHEM_IUPAC>
1-(2,5-dimethoxy-4-methylphenyl)propan-2-amine

> <ALOGPS_LOGP>
2.02

> <JCHEM_LOGP>
2.002329339666667

> <ALOGPS_LOGS>
-2.33

> <JCHEM_MDDR_LIKE_RULE>
0

> <JCHEM_NUMBER_OF_RINGS>
1

> <JCHEM_PHYSIOLOGICAL_CHARGE>
1

> <JCHEM_PKA_STRONGEST_BASIC>
9.936993631124006

> <JCHEM_POLAR_SURFACE_AREA>
44.480000000000004

> <JCHEM_REFRACTIVITY>
61.67280000000001

> <JCHEM_ROTATABLE_BOND_COUNT>
4

> <JCHEM_RULE_OF_FIVE>
1

> <ALOGPS_SOLUBILITY>
9.69e-01 g/l

> <JCHEM_TRADITIONAL_IUPAC>
(RS)-dom

> <JCHEM_VEBER_RULE>
0

> <DRUGBANK_ID>
DB01528

> <DRUG_GROUPS>
experimental; illicit

> <GENERIC_NAME>
4-Methyl-2,5-dimethoxyamphetamine

> <SYNONYMS>
STP

> <SALTS>
2,5-dimethoxy-4-methylamphetamine hydrochloride

$$$$

  Mrv1572004101616462D          

 29 32  0  0  0  0            999 V2000
    0.0978    1.3644    0.0000 O   0  0  0  0  0  0  0  0  0  0  0  0
    3.0873    0.8340    0.0000 O   0  0  0  0  0  0  0  0  0  0  0  0
   -1.3346    1.3630    0.0000 N   0  0  0  0  0  0  0  0  0  0  0  0
    1.4576    0.8322    0.0000 N   0  0  0  0  0  0  0  0  0  0  0  0
   -0.5952    0.1212    0.0000 C   0  0  0  0  0  0  0  0  0  0  0  0
   -0.5961    0.9545    0.0000 C   0  0  0  0  0  0  0  0  0  0  0  0
   -1.4283    0.1205    0.0000 C   0  0  0  0  0  0  0  0  0  0  0  0
   -0.5943   -0.6826    0.0000 C   0  0  0  0  0  0  0  0  0  0  0  0
    0.2086    0.1220    0.0000 C   0  0  1  0  0  0  0  0  0  0  0  0
    0.1003   -1.1276    0.0000 C   0  0  0  0  0  0  0  0  0  0  0  0
   -1.8660   -0.5888    0.0000 C   0  0  0  0  0  0  0  0  0  0  0  0
   -1.8675    0.8289    0.0000 C   0  0  0  0  0  0  0  0  0  0  0  0
   -1.3321   -1.1291    0.0000 C   0  0  0  0  0  0  0  0  0  0  0  0
    0.6244    0.8315    0.0000 C   0  0  0  0  0  0  0  0  0  0  0  0
    0.6259   -0.5862    0.0000 C   0  0  0  0  0  0  0  0  0  0  0  0
   -2.0796    1.0406    0.0000 C   0  0  0  0  0  0  0  0  0  0  0  0
   -1.3939    2.1886    0.0000 C   0  0  0  0  0  0  0  0  0  0  0  0
    0.1011   -1.9315    0.0000 C   0  0  0  0  0  0  0  0  0  0  0  0
   -2.6628   -0.5895    0.0000 C   0  0  0  0  0  0  0  0  0  0  0  0
   -1.3313   -1.9329    0.0000 C   0  0  0  0  0  0  0  0  0  0  0  0
   -2.6642    0.8281    0.0000 C   0  0  0  0  0  0  0  0  0  0  0  0
   -2.2271    2.3414    0.0000 C   0  0  0  0  0  0  0  0  0  0  0  0
   -2.6065    1.6321    0.0000 C   0  0  0  0  0  0  0  0  0  0  0  0
   -3.0873    0.1188    0.0000 C   0  0  0  0  0  0  0  0  0  0  0  0
   -0.5928   -2.3414    0.0000 C   0  0  0  0  0  0  0  0  0  0  0  0
    1.8675    0.1238    0.0000 C   0  0  0  0  0  0  0  0  0  0  0  0
    1.8661    1.5781    0.0000 C   0  0  0  0  0  0  0  0  0  0  0  0
    2.6992    1.5790    0.0000 C   0  0  0  0  0  0  0  0  0  0  0  0
    2.7007    0.1246    0.0000 C   0  0  0  0  0  0  0  0  0  0  0  0
  1  6  2  0  0  0  0
  2 28  1  0  0  0  0
  2 29  1  0  0  0  0
  3  6  1  0  0  0  0
  3 16  1  0  0  0  0
  3 17  1  0  0  0  0
  4 14  1  0  0  0  0
  4 26  1  0  0  0  0
  4 27  1  0  0  0  0
  5  6  1  0  0  0  0
  5  7  1  0  0  0  0
  5  8  1  0  0  0  0
  5  9  1  0  0  0  0
  7 11  2  0  0  0  0
  7 12  1  0  0  0  0
  8 10  2  0  0  0  0
  8 13  1  0  0  0  0
  9 14  1  0  0  0  0
  9 15  1  1  0  0  0
 10 18  1  0  0  0  0
 11 19  1  0  0  0  0
 12 21  2  0  0  0  0
 13 20  2  0  0  0  0
 16 23  1  0  0  0  0
 17 22  1  0  0  0  0
 18 25  2  0  0  0  0
 19 24  2  0  0  0  0
 20 25  1  0  0  0  0
 21 24  1  0  0  0  0
 22 23  1  0  0  0  0
 26 29  1  0  0  0  0
 27 28  1  0  0  0  0
M  END
> <DATABASE_ID>
DB01529

> <DATABASE_NAME>
drugbank

> <SMILES>
C[C@H](CN1CCOCC1)C(C(=O)N1CCCC1)(C1=CC=CC=C1)C1=CC=CC=C1

> <INCHI_IDENTIFIER>
InChI=1S/C25H32N2O2/c1-21(20-26-16-18-29-19-17-26)25(22-10-4-2-5-11-22,23-12-6-3-7-13-23)24(28)27-14-8-9-15-27/h2-7,10-13,21H,8-9,14-20H2,1H3/t21-/m1/s1

> <INCHI_KEY>
INUNXTSAACVKJS-OAQYLSRUSA-N

> <FORMULA>
C25H32N2O2

> <MOLECULAR_WEIGHT>
392.543

> <EXACT_MASS>
392.246378278

> <JCHEM_ACCEPTOR_COUNT>
3

> <JCHEM_ATOM_COUNT>
61

> <JCHEM_AVERAGE_POLARIZABILITY>
44.36172238645318

> <JCHEM_BIOAVAILABILITY>
1

> <JCHEM_DONOR_COUNT>
0

> <JCHEM_FORMAL_CHARGE>
0

> <JCHEM_GHOSE_FILTER>
1

> <JCHEM_IUPAC>
(3S)-3-methyl-4-(morpholin-4-yl)-2,2-diphenyl-1-(pyrrolidin-1-yl)butan-1-one

> <ALOGPS_LOGP>
4.17

> <JCHEM_LOGP>
3.7531146

> <ALOGPS_LOGS>
-4.35

> <JCHEM_MDDR_LIKE_RULE>
1

> <JCHEM_NUMBER_OF_RINGS>
4

> <JCHEM_PHYSIOLOGICAL_CHARGE>
1

> <JCHEM_PKA_STRONGEST_BASIC>
7.7677237438102935

> <JCHEM_POLAR_SURFACE_AREA>
32.78

> <JCHEM_REFRACTIVITY>
117.37480000000001

> <JCHEM_ROTATABLE_BOND_COUNT>
6

> <JCHEM_RULE_OF_FIVE>
1

> <ALOGPS_SOLUBILITY>
1.75e-02 g/l

> <JCHEM_TRADITIONAL_IUPAC>
dextromoramide

> <JCHEM_VEBER_RULE>
1

> <DRUGBANK_ID>
DB01529

> <DRUG_GROUPS>
experimental; illicit

> <GENERIC_NAME>
Dextromoramide

> <SYNONYMS>
(+)-1-(3-methyl-4-morpholino-2,2-diphenylbutyryl)pyrrolidine; (+)-4-(2-methyl-4-oxo-3,3-diphenyl-4-(1-pyrrolidinyl)butyl)morpholine; 1-((3S)-3-methyl-4-(4-morpholinyl)-1-oxo-2,2-diphenylbutyl)pyrrolidine; 4-(2-methyl-4-oxo-3,3-diphenyl-4-(1-pyrrolidinyl)butyl)morpholine; D-2,2-diphenyl-3-methyl-4-morpholinobutyrylpyrrolidine; dextromoramida; Dextromoramide; dextromoramidum; palphium; Pyrrolamidol

> <INTERNATIONAL_BRANDS>
palfium

$$$$
Untitled Document-7
  Mrv1902 04081923022D          

 27 30  0  0  0  0            999 V2000
    0.5370    0.8902    0.0000 C   0  0  0  0  0  0  0  0  0  0  0  0
   -1.9788    1.2923    0.0000 C   0  0  0  0  0  0  0  0  0  0  0  0
    0.5658   -1.2923    0.0000 C   0  0  0  0  0  0  0  0  0  0  0  0
   -0.2462   -1.1471    0.0000 C   0  0  0  0  0  0  0  0  0  0  0  0
   -1.9899   -0.7323    0.0000 C   0  0  0  0  0  0  0  0  0  0  0  0
   -2.6728   -0.2693    0.0000 C   0  0  0  0  0  0  0  0  0  0  0  0
    2.1613    0.5997    0.0000 C   0  0  0  0  0  0  0  0  0  0  0  0
   -0.2750    1.0354    0.0000 C   0  0  0  0  0  0  0  0  0  0  0  0
    1.3492    0.7450    0.0000 C   0  0  0  0  0  0  0  0  0  0  0  0
   -1.0871    1.1806    0.0000 C   0  0  0  0  0  0  0  0  0  0  0  0
    1.9098   -0.8068    0.0000 C   0  0  0  0  0  0  0  0  0  0  0  0
    1.0976   -0.6616    0.0000 C   0  0  1  0  0  0  0  0  0  0  0  0
    2.4416   -0.1761    0.0000 C   0  0  2  0  0  0  0  0  0  0  0  0
   -0.5265   -0.3711    0.0000 C   0  0  1  0  0  0  0  0  0  0  0  0
   -1.3386   -0.2259    0.0000 C   0  0  1  0  0  0  0  0  0  0  0  0
    0.0052    0.2595    0.0000 C   0  0  1  0  0  0  0  0  0  0  0  0
   -2.4435    0.5231    0.0000 C   0  0  1  0  0  0  0  0  0  0  0  0
    0.8173    0.1143    0.0000 C   0  0  2  0  0  0  0  0  0  0  0  0
   -1.6189    0.5499    0.0000 C   0  0  2  0  0  0  0  0  0  0  0  0
    3.2537   -0.3213    0.0000 O   0  0  0  0  0  0  0  0  0  0  0  0
   -2.9498    1.1744    0.0000 O   0  0  0  0  0  0  0  0  0  0  0  0
    1.6295   -0.0309    0.0000 H   0  0  0  0  0  0  0  0  0  0  0  0
    2.7219   -0.9520    0.0000 H   0  0  0  0  0  0  0  0  0  0  0  0
   -1.0583   -1.0018    0.0000 H   0  0  0  0  0  0  0  0  0  0  0  0
   -0.8068    0.4047    0.0000 H   0  0  0  0  0  0  0  0  0  0  0  0
    0.2855   -0.5164    0.0000 H   0  0  0  0  0  0  0  0  0  0  0  0
   -3.2537    0.3676    0.0000 H   0  0  0  0  0  0  0  0  0  0  0  0
  4  3  1  0  0  0  0
  6  5  1  0  0  0  0
  9  7  1  0  0  0  0
 10  8  1  0  0  0  0
 12  3  1  0  0  0  0
 12 11  1  0  0  0  0
 13  7  1  0  0  0  0
 13 11  1  0  0  0  0
 14  4  1  0  0  0  0
 15  5  1  0  0  0  0
 14 15  1  0  0  0  0
 16  8  1  0  0  0  0
 14 16  1  0  0  0  0
 17  6  1  0  0  0  0
 18  1  1  6  0  0  0
 18  9  1  0  0  0  0
 18 12  1  0  0  0  0
 16 18  1  0  0  0  0
 19  2  1  6  0  0  0
 19 10  1  0  0  0  0
 15 19  1  0  0  0  0
 19 17  1  0  0  0  0
 13 20  1  0  0  0  0
 17 21  1  6  0  0  0
 12 22  1  1  0  0  0
 13 23  1  6  0  0  0
 14 24  1  6  0  0  0
 15 25  1  1  0  0  0
 16 26  1  1  0  0  0
 17 27  1  1  0  0  0
M  END
> <DATABASE_ID>
DB01530

> <DATABASE_NAME>
drugbank

> <SMILES>
[H][C@]1(O)CC[C@@]2([H])[C@]3([H])CC[C@@]4([H])C[C@]([H])(O)CC[C@]4(C)[C@@]3([H])CC[C@]12C

> <INCHI_IDENTIFIER>
InChI=1S/C19H32O2/c1-18-9-7-13(20)11-12(18)3-4-14-15-5-6-17(21)19(15,2)10-8-16(14)18/h12-17,20-21H,3-11H2,1-2H3/t12-,13+,14-,15-,16-,17-,18-,19-/m0/s1

> <INCHI_KEY>
CBMYJHIOYJEBSB-KHOSGYARSA-N

> <FORMULA>
C19H32O2

> <MOLECULAR_WEIGHT>
292.4562

> <EXACT_MASS>
292.240230268

> <JCHEM_ACCEPTOR_COUNT>
2

> <JCHEM_ATOM_COUNT>
53

> <JCHEM_AVERAGE_POLARIZABILITY>
35.24736542564138

> <JCHEM_BIOAVAILABILITY>
1

> <JCHEM_DONOR_COUNT>
2

> <JCHEM_FORMAL_CHARGE>
0

> <JCHEM_GHOSE_FILTER>
1

> <JCHEM_IUPAC>
(1S,3aS,3bR,5aS,7R,9aS,9bS,11aS)-9a,11a-dimethyl-hexadecahydro-1H-cyclopenta[a]phenanthrene-1,7-diol

> <ALOGPS_LOGP>
3.56

> <JCHEM_LOGP>
3.2037568309999997

> <ALOGPS_LOGS>
-4.18

> <JCHEM_MDDR_LIKE_RULE>
0

> <JCHEM_NUMBER_OF_RINGS>
4

> <JCHEM_PHYSIOLOGICAL_CHARGE>
0

> <JCHEM_PKA>
19.377705356554483

> <JCHEM_PKA_STRONGEST_ACIDIC>
18.2963963211217

> <JCHEM_PKA_STRONGEST_BASIC>
-0.7580100340749988

> <JCHEM_POLAR_SURFACE_AREA>
40.46

> <JCHEM_REFRACTIVITY>
84.63119999999999

> <JCHEM_ROTATABLE_BOND_COUNT>
0

> <JCHEM_RULE_OF_FIVE>
1

> <ALOGPS_SOLUBILITY>
1.93e-02 g/l

> <JCHEM_TRADITIONAL_IUPAC>
6-acetyl-2-({5-[(2-aminoethyl)amino]pyridin-2-yl}amino)-8-cyclopentyl-5-methylpyrido[2,3-d]pyrimidin-7-one

> <JCHEM_VEBER_RULE>
0

> <DRUGBANK_ID>
DB01530

> <DRUG_GROUPS>
experimental; illicit

> <GENERIC_NAME>
5alpha-androstane-3alpha,17beta-diol

> <SYNONYMS>
17beta-dihydroandrosterone; 3alpha-androstanediol; 3alpha,17beta-dihydroxy-5alpha-androstane; 3α,17β-dihydroxy-5α-androstane; Dihydroandrosterone; hombreol

$$$$

  Mrv1572004091621442D          

 23 27  0  0  0  0            999 V2000
    0.4120   -0.6777    0.0000 C   0  0  2  0  0  0  0  0  0  0  0  0
   -0.4120   -0.6777    0.0000 C   0  0  0  0  0  0  0  0  0  0  0  0
    0.8303    0.0334    0.0000 C   0  0  2  0  0  0  0  0  0  0  0  0
   -0.8135   -1.3845    0.0000 C   0  0  0  0  0  0  0  0  0  0  0  0
    0.8177   -1.3845    0.0000 C   0  0  1  0  0  0  0  0  0  0  0  0
   -0.0355   -1.8739    0.0000 O   0  0  0  0  0  0  0  0  0  0  0  0
    0.3910    0.7487    0.0000 C   0  0  1  0  0  0  0  0  0  0  0  0
   -0.8135    0.0334    0.0000 C   0  0  0  0  0  0  0  0  0  0  0  0
    1.6543    0.0334    0.0000 C   0  0  0  0  0  0  0  0  0  0  0  0
   -0.4120    0.7487    0.0000 C   0  0  0  0  0  0  0  0  0  0  0  0
    0.4120    1.5769    0.0000 N   0  0  0  0  0  0  0  0  0  0  0  0
   -0.0105    0.0376    0.0000 C   0  0  0  0  0  0  0  0  0  0  0  0
    2.0685   -0.6819    0.0000 C   0  0  0  0  0  0  0  0  0  0  0  0
    1.6459   -1.3971    0.0000 C   0  0  0  0  0  0  0  0  0  0  0  0
   -1.6417   -1.3845    0.0000 C   0  0  0  0  0  0  0  0  0  0  0  0
   -0.0105    1.0540    0.0000 C   0  0  0  0  0  0  0  0  0  0  0  0
   -1.6417    0.0334    0.0000 C   0  0  0  0  0  0  0  0  0  0  0  0
   -2.0601   -0.6777    0.0000 C   0  0  0  0  0  0  0  0  0  0  0  0
   -2.0685   -2.1124    0.0000 O   0  0  0  0  0  0  0  0  0  0  0  0
    0.8261    2.3090    0.0000 C   0  0  0  0  0  0  0  0  0  0  0  0
    0.8135   -2.3090    0.0000 H   0  0  0  0  0  0  0  0  0  0  0  0
    1.2444    0.7612    0.0000 H   0  0  0  0  0  0  0  0  0  0  0  0
    1.1064    1.1628    0.0000 H   0  0  0  0  0  0  0  0  0  0  0  0
  2  1  1  0  0  0  0
  3  1  1  0  0  0  0
  4  2  2  0  0  0  0
  5  1  1  0  0  0  0
  6  5  1  0  0  0  0
  7  3  1  0  0  0  0
  8  2  1  0  0  0  0
  9  3  1  0  0  0  0
 10  7  1  0  0  0  0
 11 16  1  0  0  0  0
  1 12  1  1  0  0  0
 13 14  1  0  0  0  0
 14  5  1  0  0  0  0
 15  4  1  0  0  0  0
 16 12  1  0  0  0  0
 17  8  2  0  0  0  0
 18 17  1  0  0  0  0
 19 15  1  0  0  0  0
 20 11  1  0  0  0  0
  5 21  1  1  0  0  0
  3 22  1  1  0  0  0
  7 23  1  6  0  0  0
  4  6  1  0  0  0  0
  7 11  1  0  0  0  0
  9 13  1  0  0  0  0
  8 10  1  0  0  0  0
 18 15  2  0  0  0  0
M  END
> <DATABASE_ID>
DB01531

> <DATABASE_NAME>
drugbank

> <SMILES>
[H][C@@]12CCC[C@@]3([H])[C@@]4([H])CC5=CC=C(O)C(O1)=C5[C@@]23CCN4C

> <INCHI_IDENTIFIER>
InChI=1S/C17H21NO2/c1-18-8-7-17-11-3-2-4-14(17)20-16-13(19)6-5-10(15(16)17)9-12(11)18/h5-6,11-12,14,19H,2-4,7-9H2,1H3/t11-,12+,14-,17+/m0/s1

> <INCHI_KEY>
LNNWVNGFPYWNQE-GMIGKAJZSA-N

> <FORMULA>
C17H21NO2

> <MOLECULAR_WEIGHT>
271.36

> <EXACT_MASS>
271.15722892

> <JCHEM_ACCEPTOR_COUNT>
3

> <JCHEM_ATOM_COUNT>
41

> <JCHEM_AVERAGE_POLARIZABILITY>
29.98514234660533

> <JCHEM_BIOAVAILABILITY>
1

> <JCHEM_DONOR_COUNT>
1

> <JCHEM_FORMAL_CHARGE>
0

> <JCHEM_GHOSE_FILTER>
1

> <JCHEM_IUPAC>
(1S,5R,13S,17R)-4-methyl-12-oxa-4-azapentacyclo[9.6.1.0¹,¹³.0⁵,¹⁷.0⁷,¹⁸]octadeca-7,9,11(18)-trien-10-ol

> <ALOGPS_LOGP>
2.50

> <JCHEM_LOGP>
2.109374695472497

> <ALOGPS_LOGS>
-2.50

> <JCHEM_MDDR_LIKE_RULE>
0

> <JCHEM_NUMBER_OF_RINGS>
5

> <JCHEM_PHYSIOLOGICAL_CHARGE>
1

> <JCHEM_PKA_STRONGEST_ACIDIC>
10.3502006762929

> <JCHEM_PKA_STRONGEST_BASIC>
9.378447998499317

> <JCHEM_POLAR_SURFACE_AREA>
32.7

> <JCHEM_REFRACTIVITY>
77.79830000000001

> <JCHEM_ROTATABLE_BOND_COUNT>
0

> <JCHEM_RULE_OF_FIVE>
1

> <ALOGPS_SOLUBILITY>
8.60e-01 g/l

> <JCHEM_TRADITIONAL_IUPAC>
desomorphine

> <JCHEM_VEBER_RULE>
1

> <DRUGBANK_ID>
DB01531

> <DRUG_GROUPS>
experimental; illicit

> <GENERIC_NAME>
Desomorphine

> <SYNONYMS>
4,5-epoxy-3-hydroxy-n-methylmorphinan; 6-deoxy-7,8-dihydromorphine; Deoxydihydromorphine D; Dihydrodeoxymorphine; Dihydrodesoxymorphine D

$$$$
1532
  Mrv0541 02231215322D          

 25 27  0  0  1  0            999 V2000
    1.6500    2.2688    0.0000 O   0  0  0  0  0  0  0  0  0  0  0  0
    3.0791   -0.2063    0.0000 N   0  0  0  0  0  0  0  0  0  0  0  0
    3.0791    2.2688    0.0000 N   0  0  0  0  0  0  0  0  0  0  0  0
    3.0791    1.4438    0.0000 C   0  0  0  0  0  0  0  0  0  0  0  0
    2.3645    1.0313    0.0000 C   0  0  0  0  0  0  0  0  0  0  0  0
    3.7935    1.0313    0.0000 C   0  0  0  0  0  0  0  0  0  0  0  0
    2.3645    0.2063    0.0000 C   0  0  0  0  0  0  0  0  0  0  0  0
    3.7935    0.2063    0.0000 C   0  0  0  0  0  0  0  0  0  0  0  0
    3.0791   -1.0313    0.0000 C   0  0  0  0  0  0  0  0  0  0  0  0
    2.3645   -1.4438    0.0000 C   0  0  0  0  0  0  0  0  0  0  0  0
    3.7935   -1.4438    0.0000 C   0  0  0  0  0  0  0  0  0  0  0  0
    3.7935    2.6813    0.0000 C   0  0  0  0  0  0  0  0  0  0  0  0
    2.3645    2.6813    0.0000 C   0  0  0  0  0  0  0  0  0  0  0  0
    2.3645   -2.2688    0.0000 C   0  0  0  0  0  0  0  0  0  0  0  0
    3.7935    3.5063    0.0000 C   0  0  0  0  0  0  0  0  0  0  0  0
    4.5080    2.2688    0.0000 C   0  0  0  0  0  0  0  0  0  0  0  0
    2.3645    3.5063    0.0000 C   0  0  0  0  0  0  0  0  0  0  0  0
    3.0791   -2.6813    0.0000 C   0  0  0  0  0  0  0  0  0  0  0  0
    1.6500   -2.6813    0.0000 C   0  0  0  0  0  0  0  0  0  0  0  0
    4.5080    3.9188    0.0000 C   0  0  0  0  0  0  0  0  0  0  0  0
    5.2224    2.6813    0.0000 C   0  0  0  0  0  0  0  0  0  0  0  0
    3.0791   -3.5063    0.0000 C   0  0  0  0  0  0  0  0  0  0  0  0
    1.6500   -3.5063    0.0000 C   0  0  0  0  0  0  0  0  0  0  0  0
    5.2224    3.5063    0.0000 C   0  0  0  0  0  0  0  0  0  0  0  0
    2.3645   -3.9188    0.0000 C   0  0  0  0  0  0  0  0  0  0  0  0
  1 13  2  0  0  0  0
  2  7  1  0  0  0  0
  2  8  1  0  0  0  0
  2  9  1  0  0  0  0
  3  4  1  0  0  0  0
  3 12  1  0  0  0  0
  3 13  1  0  0  0  0
  4  5  1  0  0  0  0
  4  6  1  0  0  0  0
  5  7  1  0  0  0  0
  6  8  1  0  0  0  0
  9 10  1  0  0  0  0
  9 11  1  0  0  0  0
 10 14  1  0  0  0  0
 12 15  2  0  0  0  0
 12 16  1  0  0  0  0
 13 17  1  0  0  0  0
 14 18  2  0  0  0  0
 14 19  1  0  0  0  0
 15 20  1  0  0  0  0
 16 21  2  0  0  0  0
 18 22  1  0  0  0  0
 19 23  2  0  0  0  0
 20 24  2  0  0  0  0
 21 24  1  0  0  0  0
 22 25  2  0  0  0  0
 23 25  1  0  0  0  0
M  END
> <DATABASE_ID>
DB01532

> <DATABASE_NAME>
drugbank

> <SMILES>
CC(CC1=CC=CC=C1)N1CCC(CC1)N(C(C)=O)C1=CC=CC=C1

> <INCHI_IDENTIFIER>
InChI=1S/C22H28N2O/c1-18(17-20-9-5-3-6-10-20)23-15-13-22(14-16-23)24(19(2)25)21-11-7-4-8-12-21/h3-12,18,22H,13-17H2,1-2H3

> <INCHI_KEY>
OKTLVZBUKMRPLL-UHFFFAOYSA-N

> <FORMULA>
C22H28N2O

> <MOLECULAR_WEIGHT>
336.4705

> <EXACT_MASS>
336.220163528

> <JCHEM_ACCEPTOR_COUNT>
2

> <JCHEM_AVERAGE_POLARIZABILITY>
39.93804531521542

> <JCHEM_BIOAVAILABILITY>
1

> <JCHEM_DONOR_COUNT>
0

> <JCHEM_FORMAL_CHARGE>
0

> <JCHEM_GHOSE_FILTER>
1

> <JCHEM_IUPAC>
N-phenyl-N-[1-(1-phenylpropan-2-yl)piperidin-4-yl]acetamide

> <ALOGPS_LOGP>
4.09

> <JCHEM_LOGP>
3.5315377259999994

> <ALOGPS_LOGS>
-4.19

> <JCHEM_MDDR_LIKE_RULE>
0

> <JCHEM_NUMBER_OF_RINGS>
3

> <JCHEM_PHYSIOLOGICAL_CHARGE>
1

> <JCHEM_PKA_STRONGEST_BASIC>
9.00503063384305

> <JCHEM_POLAR_SURFACE_AREA>
23.550000000000004

> <JCHEM_REFRACTIVITY>
103.27440000000004

> <JCHEM_ROTATABLE_BOND_COUNT>
5

> <JCHEM_RULE_OF_FIVE>
1

> <ALOGPS_SOLUBILITY>
2.20e-02 g/l

> <JCHEM_TRADITIONAL_IUPAC>
acetyl-α-methylfentanyl

> <JCHEM_VEBER_RULE>
1

> <DRUGBANK_ID>
DB01532

> <DRUG_GROUPS>
illicit

> <GENERIC_NAME>
α-Methylacetylfentanyl

> <SYNONYMS>
Acetyl-alpha-methylfentanyl; alphamethylacetylfentanyl

$$$$
1533
  Mrv0541 02231215322D          

 19 20  0  0  1  0            999 V2000
    5.9762   -0.3195    0.0000 S   0  0  0  0  0  0  0  0  0  0  0  0
    3.8405   -1.7065    0.0000 S   0  0  0  0  0  0  0  0  0  0  0  0
    3.0791    1.2535    0.0000 N   0  0  0  0  0  0  0  0  0  0  0  0
    3.7935    0.8410    0.0000 C   0  0  0  0  0  0  0  0  0  0  0  0
    2.3645    0.8410    0.0000 C   0  0  0  0  0  0  0  0  0  0  0  0
    3.0791    2.0786    0.0000 C   0  0  0  0  0  0  0  0  0  0  0  0
    3.7935    0.0160    0.0000 C   0  0  0  0  0  0  0  0  0  0  0  0
    4.5080    1.2535    0.0000 C   0  0  0  0  0  0  0  0  0  0  0  0
    4.5080   -0.3965    0.0000 C   0  0  0  0  0  0  0  0  0  0  0  0
    1.6500    1.2535    0.0000 C   0  0  0  0  0  0  0  0  0  0  0  0
    2.3645    2.4911    0.0000 C   0  0  0  0  0  0  0  0  0  0  0  0
    5.2224    0.0160    0.0000 C   0  0  0  0  0  0  0  0  0  0  0  0
    4.5080   -1.2215    0.0000 C   0  0  0  0  0  0  0  0  0  0  0  0
    5.3087    0.8365    0.0000 C   0  0  0  0  0  0  0  0  0  0  0  0
    5.1754   -1.7065    0.0000 C   0  0  0  0  0  0  0  0  0  0  0  0
    6.1157    1.0081    0.0000 C   0  0  0  0  0  0  0  0  0  0  0  0
    4.9205   -2.4911    0.0000 C   0  0  0  0  0  0  0  0  0  0  0  0
    6.5282    0.2935    0.0000 C   0  0  0  0  0  0  0  0  0  0  0  0
    4.0955   -2.4911    0.0000 C   0  0  0  0  0  0  0  0  0  0  0  0
  1 12  1  0  0  0  0
  1 18  1  0  0  0  0
  2 13  1  0  0  0  0
  2 19  1  0  0  0  0
  3  4  1  0  0  0  0
  3  5  1  0  0  0  0
  3  6  1  0  0  0  0
  4  7  1  0  0  0  0
  4  8  1  0  0  0  0
  5 10  1  0  0  0  0
  6 11  1  0  0  0  0
  7  9  2  0  0  0  0
  9 12  1  0  0  0  0
  9 13  1  0  0  0  0
 12 14  2  0  0  0  0
 13 15  2  0  0  0  0
 14 16  1  0  0  0  0
 15 17  1  0  0  0  0
 16 18  2  0  0  0  0
 17 19  2  0  0  0  0
M  END
> <DATABASE_ID>
DB01533

> <DATABASE_NAME>
drugbank

> <SMILES>
CCN(CC)C(C)C=C(C1=CC=CS1)C1=CC=CS1

> <INCHI_IDENTIFIER>
InChI=1S/C16H21NS2/c1-4-17(5-2)13(3)12-14(15-8-6-10-18-15)16-9-7-11-19-16/h6-13H,4-5H2,1-3H3

> <INCHI_KEY>
CBYWMRHUUVRIAF-UHFFFAOYSA-N

> <FORMULA>
C16H21NS2

> <MOLECULAR_WEIGHT>
291.475

> <EXACT_MASS>
291.111541057

> <JCHEM_ACCEPTOR_COUNT>
1

> <JCHEM_AVERAGE_POLARIZABILITY>
33.69012171589414

> <JCHEM_BIOAVAILABILITY>
1

> <JCHEM_DONOR_COUNT>
0

> <JCHEM_FORMAL_CHARGE>
0

> <JCHEM_GHOSE_FILTER>
1

> <JCHEM_IUPAC>
[4,4-bis(thiophen-2-yl)but-3-en-2-yl]diethylamine

> <ALOGPS_LOGP>
5.15

> <JCHEM_LOGP>
4.913710514

> <ALOGPS_LOGS>
-3.73

> <JCHEM_MDDR_LIKE_RULE>
0

> <JCHEM_NUMBER_OF_RINGS>
2

> <JCHEM_PHYSIOLOGICAL_CHARGE>
1

> <JCHEM_PKA_STRONGEST_BASIC>
9.21921487195444

> <JCHEM_POLAR_SURFACE_AREA>
3.24

> <JCHEM_REFRACTIVITY>
96.16780000000003

> <JCHEM_ROTATABLE_BOND_COUNT>
6

> <JCHEM_RULE_OF_FIVE>
1

> <ALOGPS_SOLUBILITY>
5.39e-02 g/l

> <JCHEM_TRADITIONAL_IUPAC>
diethylthiambutene

> <JCHEM_VEBER_RULE>
1

> <DRUGBANK_ID>
DB01533

> <DRUG_GROUPS>
experimental; illicit

> <GENERIC_NAME>
Diethylthiambutene

$$$$
1534
  Mrv0541 02231215322D          

 14 13  0  0  1  0            999 V2000
    7.0944    0.8019    0.0000 Cl  0  0  0  0  0  0  0  0  0  0  0  0
    6.7925   -0.3251    0.0000 Cl  0  0  0  0  0  0  0  0  0  0  0  0
    5.9674    1.1039    0.0000 Cl  0  0  0  0  0  0  0  0  0  0  0  0
    4.9509    0.3894    0.0000 O   0  0  0  0  0  0  0  0  0  0  0  0
    2.0930   -0.4356    0.0000 O   0  0  0  0  0  0  0  0  0  0  0  0
    5.6655   -0.8481    0.0000 O   0  0  0  0  0  0  0  0  0  0  0  0
    2.8075   -0.0231    0.0000 C   0  0  0  0  0  0  0  0  0  0  0  0
    3.5220    0.3894    0.0000 C   0  0  0  0  0  0  0  0  0  0  0  0
    4.2365   -0.0231    0.0000 C   0  0  0  0  0  0  0  0  0  0  0  0
    2.3950    0.6914    0.0000 C   0  0  0  0  0  0  0  0  0  0  0  0
    3.2200   -0.7376    0.0000 C   0  0  0  0  0  0  0  0  0  0  0  0
    4.2365   -0.8481    0.0000 C   0  0  0  0  0  0  0  0  0  0  0  0
    5.6655   -0.0231    0.0000 C   0  0  0  0  0  0  0  0  0  0  0  0
    6.3799    0.3894    0.0000 C   0  0  0  0  0  0  0  0  0  0  0  0
  1 14  1  0  0  0  0
  2 14  1  0  0  0  0
  3 14  1  0  0  0  0
  4  9  1  0  0  0  0
  4 13  1  0  0  0  0
  5  7  1  0  0  0  0
  6 13  1  0  0  0  0
  7  8  1  0  0  0  0
  7 10  1  0  0  0  0
  7 11  1  0  0  0  0
  8  9  1  0  0  0  0
  9 12  1  0  0  0  0
 13 14  1  0  0  0  0
M  END
> <DATABASE_ID>
DB01534

> <DATABASE_NAME>
drugbank

> <SMILES>
CC(CC(C)(C)O)OC(O)C(Cl)(Cl)Cl

> <INCHI_IDENTIFIER>
InChI=1S/C8H15Cl3O3/c1-5(4-7(2,3)13)14-6(12)8(9,10)11/h5-6,12-13H,4H2,1-3H3

> <INCHI_KEY>
QVFWZNCVPCJQOP-UHFFFAOYSA-N

> <FORMULA>
C8H15Cl3O3

> <MOLECULAR_WEIGHT>
265.562

> <EXACT_MASS>
264.008677467

> <JCHEM_ACCEPTOR_COUNT>
3

> <JCHEM_AVERAGE_POLARIZABILITY>
24.39515593206665

> <JCHEM_BIOAVAILABILITY>
1

> <JCHEM_DONOR_COUNT>
2

> <JCHEM_FORMAL_CHARGE>
0

> <JCHEM_GHOSE_FILTER>
1

> <JCHEM_IUPAC>
2-methyl-4-(2,2,2-trichloro-1-hydroxyethoxy)pentan-2-ol

> <ALOGPS_LOGP>
2.34

> <JCHEM_LOGP>
1.8190659620000003

> <ALOGPS_LOGS>
-2.33

> <JCHEM_MDDR_LIKE_RULE>
0

> <JCHEM_NUMBER_OF_RINGS>
0

> <JCHEM_PHYSIOLOGICAL_CHARGE>
0

> <JCHEM_PKA>
15.312787265902827

> <JCHEM_PKA_STRONGEST_ACIDIC>
9.667707577463043

> <JCHEM_PKA_STRONGEST_BASIC>
-2.6620947180975847

> <JCHEM_POLAR_SURFACE_AREA>
49.69

> <JCHEM_REFRACTIVITY>
58.630399999999995

> <JCHEM_ROTATABLE_BOND_COUNT>
5

> <JCHEM_RULE_OF_FIVE>
1

> <ALOGPS_SOLUBILITY>
1.24e+00 g/l

> <JCHEM_TRADITIONAL_IUPAC>
chlorhexadol

> <JCHEM_VEBER_RULE>
0

> <DRUGBANK_ID>
DB01534

> <DRUG_GROUPS>
experimental; illicit

> <GENERIC_NAME>
Chlorhexadol

> <SYNONYMS>
Chloralodol; Chloralodolum; Cloralodol

> <INTERNATIONAL_BRANDS>
Lora; Mecoral; Medodorm; Merchloral

$$$$
1535
  Mrv0541 02231215322D          

 29 31  0  0  0  0            999 V2000
    2.2820    1.4946    0.0000 O   0  0  0  0  0  0  0  0  0  0  0  0
    2.7751    2.5520    0.0000 O   0  0  0  0  0  0  0  0  0  0  0  0
    3.4282    3.4054    0.0000 O   0  0  0  0  0  0  0  0  0  0  0  0
    3.6893   -0.4036    0.0000 N   0  0  0  0  0  0  0  0  0  0  0  0
    4.1018    1.9609    0.0000 N   0  0  0  0  0  0  0  0  0  0  0  0
    3.6893    1.2464    0.0000 C   0  0  0  0  0  0  0  0  0  0  0  0
    4.4038    0.8339    0.0000 C   0  0  0  0  0  0  0  0  0  0  0  0
    2.9749    0.8339    0.0000 C   0  0  0  0  0  0  0  0  0  0  0  0
    4.4038    0.0089    0.0000 C   0  0  0  0  0  0  0  0  0  0  0  0
    2.9749    0.0089    0.0000 C   0  0  0  0  0  0  0  0  0  0  0  0
    3.6893   -1.2286    0.0000 C   0  0  0  0  0  0  0  0  0  0  0  0
    3.0573    1.7768    0.0000 C   0  0  0  0  0  0  0  0  0  0  0  0
    4.9268    1.9609    0.0000 C   0  0  0  0  0  0  0  0  0  0  0  0
    2.9749   -1.6411    0.0000 C   0  0  0  0  0  0  0  0  0  0  0  0
    3.9585    2.7734    0.0000 C   0  0  0  0  0  0  0  0  0  0  0  0
    4.5906    3.3037    0.0000 C   0  0  0  0  0  0  0  0  0  0  0  0
    2.9749   -2.4661    0.0000 C   0  0  0  0  0  0  0  0  0  0  0  0
    5.3394    2.6754    0.0000 C   0  0  0  0  0  0  0  0  0  0  0  0
    5.3394    1.2464    0.0000 C   0  0  0  0  0  0  0  0  0  0  0  0
    4.4473    4.1162    0.0000 C   0  0  0  0  0  0  0  0  0  0  0  0
    1.6500    2.0248    0.0000 C   0  0  0  0  0  0  0  0  0  0  0  0
    6.1644    2.6754    0.0000 C   0  0  0  0  0  0  0  0  0  0  0  0
    6.1644    1.2464    0.0000 C   0  0  0  0  0  0  0  0  0  0  0  0
    3.6893   -2.8787    0.0000 C   0  0  0  0  0  0  0  0  0  0  0  0
    2.2603   -2.8787    0.0000 C   0  0  0  0  0  0  0  0  0  0  0  0
    6.5769    1.9609    0.0000 C   0  0  0  0  0  0  0  0  0  0  0  0
    3.6893   -3.7037    0.0000 C   0  0  0  0  0  0  0  0  0  0  0  0
    2.2603   -3.7037    0.0000 C   0  0  0  0  0  0  0  0  0  0  0  0
    2.9749   -4.1162    0.0000 C   0  0  0  0  0  0  0  0  0  0  0  0
  1 12  1  0  0  0  0
  1 21  1  0  0  0  0
  2 12  2  0  0  0  0
  3 15  2  0  0  0  0
  4  9  1  0  0  0  0
  4 10  1  0  0  0  0
  4 11  1  0  0  0  0
  5  6  1  0  0  0  0
  5 13  1  0  0  0  0
  5 15  1  0  0  0  0
  6  7  1  0  0  0  0
  6  8  1  0  0  0  0
  6 12  1  0  0  0  0
  7  9  1  0  0  0  0
  8 10  1  0  0  0  0
 11 14  1  0  0  0  0
 13 18  2  0  0  0  0
 13 19  1  0  0  0  0
 14 17  1  0  0  0  0
 15 16  1  0  0  0  0
 16 20  1  0  0  0  0
 17 24  2  0  0  0  0
 17 25  1  0  0  0  0
 18 22  1  0  0  0  0
 19 23  2  0  0  0  0
 22 26  2  0  0  0  0
 23 26  1  0  0  0  0
 24 27  1  0  0  0  0
 25 28  2  0  0  0  0
 27 29  2  0  0  0  0
 28 29  1  0  0  0  0
M  END
> <DATABASE_ID>
DB01535

> <DATABASE_NAME>
drugbank

> <SMILES>
CCC(=O)N(C1=CC=CC=C1)C1(CCN(CCC2=CC=CC=C2)CC1)C(=O)OC

> <INCHI_IDENTIFIER>
InChI=1S/C24H30N2O3/c1-3-22(27)26(21-12-8-5-9-13-21)24(23(28)29-2)15-18-25(19-16-24)17-14-20-10-6-4-7-11-20/h4-13H,3,14-19H2,1-2H3

> <INCHI_KEY>
YDSDEBIZUNNPOB-UHFFFAOYSA-N

> <FORMULA>
C24H30N2O3

> <MOLECULAR_WEIGHT>
394.5066

> <EXACT_MASS>
394.225642836

> <JCHEM_ACCEPTOR_COUNT>
3

> <JCHEM_AVERAGE_POLARIZABILITY>
44.60143647468159

> <JCHEM_BIOAVAILABILITY>
1

> <JCHEM_DONOR_COUNT>
0

> <JCHEM_FORMAL_CHARGE>
0

> <JCHEM_GHOSE_FILTER>
1

> <JCHEM_IUPAC>
methyl 1-(2-phenylethyl)-4-(N-phenylpropanamido)piperidine-4-carboxylate

> <ALOGPS_LOGP>
3.70

> <JCHEM_LOGP>
3.6675230616666665

> <ALOGPS_LOGS>
-4.18

> <JCHEM_MDDR_LIKE_RULE>
1

> <JCHEM_NUMBER_OF_RINGS>
3

> <JCHEM_PHYSIOLOGICAL_CHARGE>
1

> <JCHEM_PKA_STRONGEST_BASIC>
8.045435263576643

> <JCHEM_POLAR_SURFACE_AREA>
49.85000000000001

> <JCHEM_REFRACTIVITY>
114.37600000000003

> <JCHEM_ROTATABLE_BOND_COUNT>
8

> <JCHEM_RULE_OF_FIVE>
1

> <ALOGPS_SOLUBILITY>
2.59e-02 g/l

> <JCHEM_TRADITIONAL_IUPAC>
carfentanil

> <JCHEM_VEBER_RULE>
0

> <DRUGBANK_ID>
DB01535

> <DRUG_GROUPS>
illicit; investigational; vet_approved

> <GENERIC_NAME>
Carfentanil

> <SYNONYMS>
Carfentanil; carfentanila; Carfentanyl

> <SALTS>
Carfentanil citrate

$$$$
1536
  Mrv0541 02231215332D          

 24 27  0  0  1  0            999 V2000
    7.1353    1.7956    0.0000 O   0  0  0  0  0  0  0  0  0  0  0  0
    1.6498   -1.7578    0.0000 O   0  0  0  0  0  0  0  0  0  0  0  0
    5.3842   -0.4772    0.0000 C   0  0  2  0  0  0  0  0  0  0  0  0
    4.6697   -0.0648    0.0000 C   0  0  1  0  0  0  0  0  0  0  0  0
    6.0985   -0.0648    0.0000 C   0  0  1  0  0  0  0  0  0  0  0  0
    6.0985    0.7601    0.0000 C   0  0  2  0  0  0  0  0  0  0  0  0
    3.9191   -0.4829    0.0000 C   0  0  2  0  0  0  0  0  0  0  0  0
    4.6697    0.7601    0.0000 C   0  0  0  0  0  0  0  0  0  0  0  0
    5.3842    1.1725    0.0000 C   0  0  0  0  0  0  0  0  0  0  0  0
    5.3974   -1.3363    0.0000 C   0  0  0  0  0  0  0  0  0  0  0  0
    6.8790   -0.3162    0.0000 C   0  0  0  0  0  0  0  0  0  0  0  0
    3.9125   -1.3421    0.0000 C   0  0  0  0  0  0  0  0  0  0  0  0
    6.8790    1.0115    0.0000 C   0  0  0  0  0  0  0  0  0  0  0  0
    4.6566   -1.7717    0.0000 C   0  0  0  0  0  0  0  0  0  0  0  0
    7.3604    0.3477    0.0000 C   0  0  0  0  0  0  0  0  0  0  0  0
    3.1546   -0.0176    0.0000 C   0  0  0  0  0  0  0  0  0  0  0  0
    6.0985    1.5850    0.0000 C   0  0  0  0  0  0  0  0  0  0  0  0
    3.9254    0.3420    0.0000 C   0  0  0  0  0  0  0  0  0  0  0  0
    2.3726   -0.4531    0.0000 C   0  0  0  0  0  0  0  0  0  0  0  0
    3.1409   -1.7956    0.0000 C   0  0  0  0  0  0  0  0  0  0  0  0
    2.3657   -1.3480    0.0000 C   0  0  0  0  0  0  0  0  0  0  0  0
    5.9581   -0.8028    0.0000 H   0  0  0  0  0  0  0  0  0  0  0  0
    5.2413    0.2652    0.0000 H   0  0  0  0  0  0  0  0  0  0  0  0
    6.1683   -0.7210    0.0000 H   0  0  0  0  0  0  0  0  0  0  0  0
  1 13  2  0  0  0  0
  2 21  2  0  0  0  0
  3  4  1  0  0  0  0
  3  5  1  0  0  0  0
  3 10  1  0  0  0  0
  3 22  1  1  0  0  0
  4  7  1  0  0  0  0
  4  8  1  0  0  0  0
  4 23  1  6  0  0  0
  5  6  1  0  0  0  0
  5 11  1  0  0  0  0
  5 24  1  6  0  0  0
  6  9  1  0  0  0  0
  6 13  1  0  0  0  0
  6 17  1  1  0  0  0
  7 12  1  0  0  0  0
  7 16  1  0  0  0  0
  7 18  1  1  0  0  0
  8  9  1  0  0  0  0
 10 14  1  0  0  0  0
 11 15  1  0  0  0  0
 12 14  1  0  0  0  0
 12 20  2  0  0  0  0
 13 15  1  0  0  0  0
 16 19  1  0  0  0  0
 19 21  1  0  0  0  0
 20 21  1  0  0  0  0
M  END
> <DATABASE_ID>
DB01536

> <DATABASE_NAME>
drugbank

> <SMILES>
[H][C@@]12CCC(=O)[C@@]1(C)CC[C@@]1([H])[C@@]2([H])CCC2=CC(=O)CC[C@]12C

> <INCHI_IDENTIFIER>
InChI=1S/C19H26O2/c1-18-9-7-13(20)11-12(18)3-4-14-15-5-6-17(21)19(15,2)10-8-16(14)18/h11,14-16H,3-10H2,1-2H3/t14-,15-,16-,18-,19-/m0/s1

> <INCHI_KEY>
AEMFNILZOJDQLW-QAGGRKNESA-N

> <FORMULA>
C19H26O2

> <MOLECULAR_WEIGHT>
286.4085

> <EXACT_MASS>
286.193280076

> <JCHEM_ACCEPTOR_COUNT>
2

> <JCHEM_AVERAGE_POLARIZABILITY>
33.1997011684783

> <JCHEM_BIOAVAILABILITY>
1

> <JCHEM_DONOR_COUNT>
0

> <JCHEM_FORMAL_CHARGE>
0

> <JCHEM_GHOSE_FILTER>
1

> <JCHEM_IUPAC>
(1S,2R,10R,11S,15S)-2,15-dimethyltetracyclo[8.7.0.0²,⁷.0¹¹,¹⁵]heptadec-6-ene-5,14-dione

> <ALOGPS_LOGP>
2.93

> <JCHEM_LOGP>
3.9289510033333337

> <ALOGPS_LOGS>
-4.03

> <JCHEM_MDDR_LIKE_RULE>
0

> <JCHEM_NUMBER_OF_RINGS>
4

> <JCHEM_PHYSIOLOGICAL_CHARGE>
0

> <JCHEM_PKA_STRONGEST_ACIDIC>
19.028996560003517

> <JCHEM_PKA_STRONGEST_BASIC>
-4.816491550715536

> <JCHEM_POLAR_SURFACE_AREA>
34.14

> <JCHEM_REFRACTIVITY>
83.60749999999999

> <JCHEM_ROTATABLE_BOND_COUNT>
0

> <JCHEM_RULE_OF_FIVE>
1

> <ALOGPS_SOLUBILITY>
2.70e-02 g/l

> <JCHEM_TRADITIONAL_IUPAC>
androstenedione

> <JCHEM_VEBER_RULE>
1

> <DRUGBANK_ID>
DB01536

> <SECONDARY_ACCESSION_NUMBERS>
EXPT00569; DB07386

> <DRUG_GROUPS>
experimental; illicit

> <GENERIC_NAME>
Androstenedione

> <SYNONYMS>
4-Androstene-3,17-dione; 4-Androstenedione; Androst-4-ene-3,17-dione; Androstenedione; delta-4-Androstenedione

$$$$
1537
  Mrv0541 02231215332D          

 14 14  0  0  0  0            999 V2000
    3.7935   -2.3967    0.0000 Br  0  0  0  0  0  0  0  0  0  0  0  0
    2.3645    0.0784    0.0000 O   0  0  0  0  0  0  0  0  0  0  0  0
    5.2224   -1.5717    0.0000 O   0  0  0  0  0  0  0  0  0  0  0  0
    4.5080    2.1409    0.0000 N   0  0  0  0  0  0  0  0  0  0  0  0
    3.7935    0.0784    0.0000 C   0  0  0  0  0  0  0  0  0  0  0  0
    3.7935    0.9034    0.0000 C   0  0  0  0  0  0  0  0  0  0  0  0
    3.0791   -0.3341    0.0000 C   0  0  0  0  0  0  0  0  0  0  0  0
    4.5080    1.3159    0.0000 C   0  0  0  0  0  0  0  0  0  0  0  0
    4.5080   -0.3341    0.0000 C   0  0  0  0  0  0  0  0  0  0  0  0
    4.5080   -1.1592    0.0000 C   0  0  0  0  0  0  0  0  0  0  0  0
    3.0791   -1.1592    0.0000 C   0  0  0  0  0  0  0  0  0  0  0  0
    3.7935   -1.5717    0.0000 C   0  0  0  0  0  0  0  0  0  0  0  0
    1.6500   -0.3341    0.0000 C   0  0  0  0  0  0  0  0  0  0  0  0
    5.9370   -1.1592    0.0000 C   0  0  0  0  0  0  0  0  0  0  0  0
  1 12  1  0  0  0  0
  2  7  1  0  0  0  0
  2 13  1  0  0  0  0
  3 10  1  0  0  0  0
  3 14  1  0  0  0  0
  4  8  1  0  0  0  0
  5  6  1  0  0  0  0
  5  7  1  0  0  0  0
  5  9  2  0  0  0  0
  6  8  1  0  0  0  0
  7 11  2  0  0  0  0
  9 10  1  0  0  0  0
 10 12  2  0  0  0  0
 11 12  1  0  0  0  0
M  END
> <DATABASE_ID>
DB01537

> <DATABASE_NAME>
drugbank

> <SMILES>
COC1=CC(Br)=C(OC)C=C1CCN

> <INCHI_IDENTIFIER>
InChI=1S/C10H14BrNO2/c1-13-9-6-8(11)10(14-2)5-7(9)3-4-12/h5-6H,3-4,12H2,1-2H3

> <INCHI_KEY>
YMHOBZXQZVXHBM-UHFFFAOYSA-N

> <FORMULA>
C10H14BrNO2

> <MOLECULAR_WEIGHT>
260.128

> <EXACT_MASS>
259.020791344

> <JCHEM_ACCEPTOR_COUNT>
3

> <JCHEM_AVERAGE_POLARIZABILITY>
23.541857504473757

> <JCHEM_BIOAVAILABILITY>
1

> <JCHEM_DONOR_COUNT>
1

> <JCHEM_FORMAL_CHARGE>
0

> <JCHEM_GHOSE_FILTER>
1

> <JCHEM_IUPAC>
2-(4-bromo-2,5-dimethoxyphenyl)ethan-1-amine

> <ALOGPS_LOGP>
1.99

> <JCHEM_LOGP>
1.8410855510000004

> <ALOGPS_LOGS>
-3.12

> <JCHEM_MDDR_LIKE_RULE>
0

> <JCHEM_NUMBER_OF_RINGS>
1

> <JCHEM_PHYSIOLOGICAL_CHARGE>
1

> <JCHEM_PKA_STRONGEST_BASIC>
9.677359526072586

> <JCHEM_POLAR_SURFACE_AREA>
44.480000000000004

> <JCHEM_REFRACTIVITY>
59.83560000000001

> <JCHEM_ROTATABLE_BOND_COUNT>
4

> <JCHEM_RULE_OF_FIVE>
1

> <ALOGPS_SOLUBILITY>
1.99e-01 g/l

> <JCHEM_TRADITIONAL_IUPAC>
bdmpea

> <JCHEM_VEBER_RULE>
0

> <DRUGBANK_ID>
DB01537

> <DRUG_GROUPS>
experimental; illicit

> <GENERIC_NAME>
4-Bromo-2,5-dimethoxyphenethylamine

> <SYNONYMS>
2C-B

$$$$
1538
  Mrv0541 02231215332D          

 28 32  0  0  1  0            999 V2000
    2.6869    0.2627    0.0000 O   0  0  0  0  0  0  0  0  0  0  0  0
    2.4861   -1.8669    0.0000 O   0  0  0  0  0  0  0  0  0  0  0  0
    2.4861    2.3007    0.0000 O   0  0  0  0  0  0  0  0  0  0  0  0
    3.2374   -3.1681    0.0000 O   0  0  0  0  0  0  0  0  0  0  0  0
    6.0953   -0.6082    0.0000 N   0  0  0  0  0  0  0  0  0  0  0  0
    3.9519   -0.1956    0.0000 C   0  0  1  0  0  0  0  0  0  0  0  0
    4.6664   -0.6082    0.0000 C   0  0  2  0  0  0  0  0  0  0  0  0
    3.2374   -0.6082    0.0000 C   0  0  2  0  0  0  0  0  0  0  0  0
    5.3808   -0.1956    0.0000 C   0  0  1  0  0  0  0  0  0  0  0  0
    4.4285    0.4094    0.0000 C   0  0  0  0  0  0  0  0  0  0  0  0
    3.9519    0.6293    0.0000 C   0  0  0  0  0  0  0  0  0  0  0  0
    4.6664   -1.4332    0.0000 C   0  0  0  0  0  0  0  0  0  0  0  0
    3.2374   -1.4332    0.0000 C   0  0  2  0  0  0  0  0  0  0  0  0
    5.3808    0.6293    0.0000 C   0  0  0  0  0  0  0  0  0  0  0  0
    3.9519   -1.8457    0.0000 C   0  0  0  0  0  0  0  0  0  0  0  0
    5.6019    0.4094    0.0000 C   0  0  0  0  0  0  0  0  0  0  0  0
    4.6664    1.0419    0.0000 C   0  0  0  0  0  0  0  0  0  0  0  0
    3.2374    1.0419    0.0000 C   0  0  0  0  0  0  0  0  0  0  0  0
    6.6862   -1.2432    0.0000 C   0  0  0  0  0  0  0  0  0  0  0  0
    4.6664    1.8668    0.0000 C   0  0  0  0  0  0  0  0  0  0  0  0
    3.2374    1.8668    0.0000 C   0  0  0  0  0  0  0  0  0  0  0  0
    3.9519    2.2794    0.0000 C   0  0  0  0  0  0  0  0  0  0  0  0
    2.4861   -2.7344    0.0000 C   0  0  0  0  0  0  0  0  0  0  0  0
    1.7349   -3.1680    0.0000 C   0  0  0  0  0  0  0  0  0  0  0  0
    2.4861    3.1681    0.0000 C   0  0  0  0  0  0  0  0  0  0  0  0
    5.1124   -1.1397    0.0000 H   0  0  0  0  0  0  0  0  0  0  0  0
    2.5708   -0.8012    0.0000 H   0  0  0  0  0  0  0  0  0  0  0  0
    5.6188   -0.8476    0.0000 H   0  0  0  0  0  0  0  0  0  0  0  0
  1  8  1  0  0  0  0
  1 18  1  0  0  0  0
 13  2  1  6  0  0  0
  2 23  1  0  0  0  0
  3 21  1  0  0  0  0
  3 25  1  0  0  0  0
  4 23  2  0  0  0  0
  5  9  1  0  0  0  0
  5 16  1  0  0  0  0
  5 19  1  0  0  0  0
  6  7  1  0  0  0  0
  6  8  1  0  0  0  0
  6 10  1  1  0  0  0
  6 11  1  0  0  0  0
  7  9  1  0  0  0  0
  7 12  1  0  0  0  0
  7 26  1  1  0  0  0
  8 13  1  0  0  0  0
  8 27  1  1  0  0  0
  9 14  1  0  0  0  0
  9 28  1  6  0  0  0
 10 16  1  0  0  0  0
 11 17  2  0  0  0  0
 11 18  1  0  0  0  0
 12 15  1  0  0  0  0
 13 15  1  0  0  0  0
 14 17  1  0  0  0  0
 17 20  1  0  0  0  0
 18 21  2  0  0  0  0
 20 22  2  0  0  0  0
 21 22  1  0  0  0  0
 23 24  1  0  0  0  0
M  END
> <DATABASE_ID>
DB01538

> <DATABASE_NAME>
drugbank

> <SMILES>
[H][C@@]12OC3=C(OC)C=CC4=C3[C@@]11CCN(C)[C@]([H])(C4)[C@]1([H])CC[C@@H]2OC(C)=O

> <INCHI_IDENTIFIER>
InChI=1S/C20H25NO4/c1-11(22)24-16-7-5-13-14-10-12-4-6-15(23-3)18-17(12)20(13,19(16)25-18)8-9-21(14)2/h4,6,13-14,16,19H,5,7-10H2,1-3H3/t13-,14+,16-,19-,20-/m0/s1

> <INCHI_KEY>
LGGDXXJAGWBUSL-BKRJIHRRSA-N

> <FORMULA>
C20H25NO4

> <MOLECULAR_WEIGHT>
343.4168

> <EXACT_MASS>
343.178358293

> <JCHEM_ACCEPTOR_COUNT>
4

> <JCHEM_AVERAGE_POLARIZABILITY>
36.791986581627626

> <JCHEM_BIOAVAILABILITY>
1

> <JCHEM_DONOR_COUNT>
0

> <JCHEM_FORMAL_CHARGE>
0

> <JCHEM_GHOSE_FILTER>
1

> <JCHEM_IUPAC>
(1S,5R,13R,14S,17R)-10-methoxy-4-methyl-12-oxa-4-azapentacyclo[9.6.1.0¹,¹³.0⁵,¹⁷.0⁷,¹⁸]octadeca-7(18),8,10-trien-14-yl acetate

> <ALOGPS_LOGP>
2.37

> <JCHEM_LOGP>
1.9900908899999987

> <ALOGPS_LOGS>
-3.41

> <JCHEM_MDDR_LIKE_RULE>
0

> <JCHEM_NUMBER_OF_RINGS>
5

> <JCHEM_PHYSIOLOGICAL_CHARGE>
1

> <JCHEM_PKA_STRONGEST_BASIC>
9.300675247746016

> <JCHEM_POLAR_SURFACE_AREA>
48.00000000000001

> <JCHEM_REFRACTIVITY>
92.79360000000003

> <JCHEM_ROTATABLE_BOND_COUNT>
3

> <JCHEM_RULE_OF_FIVE>
1

> <ALOGPS_SOLUBILITY>
1.34e-01 g/l

> <JCHEM_TRADITIONAL_IUPAC>
acetyldihydrocodeine

> <JCHEM_VEBER_RULE>
0

> <DRUGBANK_ID>
DB01538

> <DRUG_GROUPS>
experimental; illicit

> <GENERIC_NAME>
Acetyldihydrocodeine

$$$$
1539
  Mrv0541 02231215332D          

 14 15  0  0  0  0            999 V2000
    2.8876    0.4678    0.0000 N   0  0  0  0  0  0  0  0  0  0  0  0
    1.6500    1.1823    0.0000 N   0  0  0  0  0  0  0  0  0  0  0  0
    2.4751   -0.2467    0.0000 C   0  0  0  0  0  0  0  0  0  0  0  0
    3.1895   -0.6592    0.0000 C   0  0  0  0  0  0  0  0  0  0  0  0
    1.7606   -0.6592    0.0000 C   0  0  0  0  0  0  0  0  0  0  0  0
    3.1895   -1.4842    0.0000 C   0  0  0  0  0  0  0  0  0  0  0  0
    1.7606   -1.4842    0.0000 C   0  0  0  0  0  0  0  0  0  0  0  0
    2.4751    1.1823    0.0000 C   0  0  0  0  0  0  0  0  0  0  0  0
    3.7126    0.4678    0.0000 C   0  0  0  0  0  0  0  0  0  0  0  0
    2.4751   -1.8967    0.0000 C   0  0  0  0  0  0  0  0  0  0  0  0
    2.8876    1.8967    0.0000 C   0  0  0  0  0  0  0  0  0  0  0  0
    4.1251    1.1823    0.0000 C   0  0  0  0  0  0  0  0  0  0  0  0
    3.7126    1.8967    0.0000 C   0  0  0  0  0  0  0  0  0  0  0  0
    2.0625    0.4678    0.0000 C   0  0  0  0  0  0  0  0  0  0  0  0
  1  3  1  0  0  0  0
  1  8  1  0  0  0  0
  1  9  1  0  0  0  0
  2 14  3  0  0  0  0
  3  4  1  0  0  0  0
  3  5  1  0  0  0  0
  3 14  1  0  0  0  0
  4  6  1  0  0  0  0
  5  7  1  0  0  0  0
  6 10  1  0  0  0  0
  7 10  1  0  0  0  0
  8 11  1  0  0  0  0
  9 12  1  0  0  0  0
 11 13  1  0  0  0  0
 12 13  1  0  0  0  0
M  END
> <DATABASE_ID>
DB01539

> <DATABASE_NAME>
drugbank

> <SMILES>
N#CC1(CCCCC1)N1CCCCC1

> <INCHI_IDENTIFIER>
InChI=1S/C12H20N2/c13-11-12(7-3-1-4-8-12)14-9-5-2-6-10-14/h1-10H2

> <INCHI_KEY>
WWSAYKJWUZJLRT-UHFFFAOYSA-N

> <FORMULA>
C12H20N2

> <MOLECULAR_WEIGHT>
192.3006

> <EXACT_MASS>
192.16264865

> <JCHEM_ACCEPTOR_COUNT>
2

> <JCHEM_AVERAGE_POLARIZABILITY>
22.807328547516214

> <JCHEM_BIOAVAILABILITY>
1

> <JCHEM_DONOR_COUNT>
0

> <JCHEM_FORMAL_CHARGE>
0

> <JCHEM_GHOSE_FILTER>
1

> <JCHEM_IUPAC>
1-(piperidin-1-yl)cyclohexane-1-carbonitrile

> <ALOGPS_LOGP>
2.73

> <JCHEM_LOGP>
2.6038854529999993

> <ALOGPS_LOGS>
-2.57

> <JCHEM_MDDR_LIKE_RULE>
0

> <JCHEM_NUMBER_OF_RINGS>
2

> <JCHEM_PHYSIOLOGICAL_CHARGE>
0

> <JCHEM_PKA_STRONGEST_BASIC>
6.9781666190818

> <JCHEM_POLAR_SURFACE_AREA>
27.03

> <JCHEM_REFRACTIVITY>
58.248000000000005

> <JCHEM_ROTATABLE_BOND_COUNT>
1

> <JCHEM_RULE_OF_FIVE>
1

> <ALOGPS_SOLUBILITY>
5.22e-01 g/l

> <JCHEM_TRADITIONAL_IUPAC>
1-(piperidin-1-yl)cyclohexane-1-carbonitrile

> <JCHEM_VEBER_RULE>
1

> <DRUGBANK_ID>
DB01539

> <DRUG_GROUPS>
experimental; illicit

> <GENERIC_NAME>
1-Piperidinocyclohexanecarbonitrile

$$$$

  Mrv1572010261511142D          

 26 29  0  0  0  0            999 V2000
   -1.6414    1.7912    0.0000 C   0  0  0  0  0  0  0  0  0  0  0  0
   -3.0201    1.4462    0.0000 C   0  0  0  0  0  0  0  0  0  0  0  0
   -0.4537   -0.9552    0.0000 C   0  0  0  0  0  0  0  0  0  0  0  0
    0.3103   -1.2661    0.0000 C   0  0  0  0  0  0  0  0  0  0  0  0
    1.5002    0.5638    0.0000 C   0  0  0  0  0  0  0  0  0  0  0  0
    2.2643    0.2528    0.0000 C   0  0  0  0  0  0  0  0  0  0  0  0
   -0.0281    1.1856    0.0000 C   0  0  0  0  0  0  0  0  0  0  0  0
   -2.0732   -0.1869    0.0000 C   0  0  0  0  0  0  0  0  0  0  0  0
   -0.7923    1.4965    0.0000 C   0  0  0  0  0  0  0  0  0  0  0  0
   -2.6449    0.4079    0.0000 C   0  0  0  0  0  0  0  0  0  0  0  0
    0.8488    0.0573    0.0000 C   0  0  2  0  0  0  0  0  0  0  0  0
    0.0846    0.3684    0.0000 C   0  0  2  0  0  0  0  0  0  0  0  0
   -0.5666   -0.1380    0.0000 C   0  0  2  0  0  0  0  0  0  0  0  0
    0.9616   -0.7597    0.0000 C   0  0  0  0  0  0  0  0  0  0  0  0
   -1.3309    0.1729    0.0000 C   0  0  1  0  0  0  0  0  0  0  0  0
    2.3772   -0.5643    0.0000 C   0  0  0  0  0  0  0  0  0  0  0  0
    1.7259   -1.0706    0.0000 C   0  0  0  0  0  0  0  0  0  0  0  0
   -1.4438    0.9901    0.0000 C   0  0  2  0  0  0  0  0  0  0  0  0
   -2.2558    1.1353    0.0000 C   0  0  2  0  0  0  0  0  0  0  0  0
    3.1415   -0.8751    0.0000 O   0  0  0  0  0  0  0  0  0  0  0  0
    1.8388   -1.8880    0.0000 O   0  0  0  0  0  0  0  0  0  0  0  0
   -2.0266    1.9279    0.0000 O   0  0  0  0  0  0  0  0  0  0  0  0
    1.6130   -0.2535    0.0000 H   0  0  0  0  0  0  0  0  0  0  0  0
    0.7359    0.8747    0.0000 H   0  0  0  0  0  0  0  0  0  0  0  0
   -0.6794    0.6792    0.0000 H   0  0  0  0  0  0  0  0  0  0  0  0
   -1.3040   -0.6517    0.0000 H   0  0  0  0  0  0  0  0  0  0  0  0
  4  3  1  0  0  0  0
  6  5  1  0  0  0  0
  9  7  1  0  0  0  0
 10  8  1  0  0  0  0
 11  5  1  0  0  0  0
 12  7  1  0  0  0  0
 12 11  1  0  0  0  0
 13  3  1  0  0  0  0
 13 12  1  0  0  0  0
 14  4  1  0  0  0  0
 14 11  1  0  0  0  0
 15  8  1  0  0  0  0
 15 13  1  0  0  0  0
 16  6  1  0  0  0  0
 17 14  2  0  0  0  0
 17 16  1  0  0  0  0
 18  1  1  6  0  0  0
 18  9  1  0  0  0  0
 18 15  1  0  0  0  0
 19  2  1  1  0  0  0
 19 10  1  0  0  0  0
 19 18  1  0  0  0  0
 20 16  2  0  0  0  0
 21 17  1  0  0  0  0
 19 22  1  6  0  0  0
 11 23  1  6  0  0  0
 12 24  1  1  0  0  0
 13 25  1  6  0  0  0
 15 26  1  1  0  0  0
M  END
> <DATABASE_ID>
DB01540

> <DATABASE_NAME>
drugbank

> <SMILES>
[H][C@@]12CC[C@](C)(O)[C@@]1(C)CC[C@]1([H])[C@@]3([H])CCC(=O)C(O)=C3CC[C@@]21[H]

> <INCHI_IDENTIFIER>
InChI=1S/C19H28O3/c1-18-9-7-12-11-5-6-16(20)17(21)14(11)4-3-13(12)15(18)8-10-19(18,2)22/h11-13,15,21-22H,3-10H2,1-2H3/t11-,12-,13-,15+,18+,19+/m1/s1

> <INCHI_KEY>
CLNUZOCYKSHICX-FAHHUNKHSA-N

> <FORMULA>
C19H28O3

> <MOLECULAR_WEIGHT>
304.43

> <EXACT_MASS>
304.203844762

> <JCHEM_ACCEPTOR_COUNT>
3

> <JCHEM_ATOM_COUNT>
50

> <JCHEM_AVERAGE_POLARIZABILITY>
35.021983448173685

> <JCHEM_BIOAVAILABILITY>
1

> <JCHEM_DONOR_COUNT>
2

> <JCHEM_FORMAL_CHARGE>
0

> <JCHEM_GHOSE_FILTER>
1

> <JCHEM_IUPAC>
(1S,2R,10R,11S,14S,15S)-6,14-dihydroxy-14,15-dimethyltetracyclo[8.7.0.0²,⁷.0¹¹,¹⁵]heptadec-6-en-5-one

> <ALOGPS_LOGP>
2.46

> <JCHEM_LOGP>
2.8272951646666664

> <ALOGPS_LOGS>
-3.72

> <JCHEM_MDDR_LIKE_RULE>
0

> <JCHEM_NUMBER_OF_RINGS>
4

> <JCHEM_PHYSIOLOGICAL_CHARGE>
0

> <JCHEM_PKA_STRONGEST_ACIDIC>
9.329640933545132

> <JCHEM_PKA_STRONGEST_BASIC>
-0.5280911456575724

> <JCHEM_POLAR_SURFACE_AREA>
57.53

> <JCHEM_REFRACTIVITY>
86.56029999999997

> <JCHEM_ROTATABLE_BOND_COUNT>
0

> <JCHEM_RULE_OF_FIVE>
1

> <ALOGPS_SOLUBILITY>
5.75e-02 g/l

> <JCHEM_TRADITIONAL_IUPAC>
(1S,2R,10R,11S,14S,15S)-6,14-dihydroxy-14,15-dimethyltetracyclo[8.7.0.0²,⁷.0¹¹,¹⁵]heptadec-6-en-5-one

> <JCHEM_VEBER_RULE>
0

> <DRUGBANK_ID>
DB01540

> <DRUG_GROUPS>
illicit

> <GENERIC_NAME>
17alpha-methyl-4-hydroxynandrolone

> <SYNONYMS>
17α-Methyl-4-hydroxynandrolone; 4-Hydroxy-19-normethyltestosterone

$$$$
1541
  Mrv0541 02231215332D          

 24 27  0  0  1  0            999 V2000
    7.1353    1.7429    0.0000 O   0  0  0  0  0  0  0  0  0  0  0  0
    1.6498   -1.8105    0.0000 O   0  0  0  0  0  0  0  0  0  0  0  0
    6.0985   -0.1176    0.0000 C   0  0  2  0  0  0  0  0  0  0  0  0
    6.0985    0.7073    0.0000 C   0  0  2  0  0  0  0  0  0  0  0  0
    5.3842   -0.5300    0.0000 C   0  0  1  0  0  0  0  0  0  0  0  0
    4.6697   -0.1176    0.0000 C   0  0  2  0  0  0  0  0  0  0  0  0
    5.3842    1.1197    0.0000 C   0  0  0  0  0  0  0  0  0  0  0  0
    6.8790    0.9588    0.0000 C   0  0  2  0  0  0  0  0  0  0  0  0
    4.6697    0.7073    0.0000 C   0  0  0  0  0  0  0  0  0  0  0  0
    6.8790   -0.3689    0.0000 C   0  0  0  0  0  0  0  0  0  0  0  0
    3.9191   -0.5356    0.0000 C   0  0  1  0  0  0  0  0  0  0  0  0
    5.3974   -1.3891    0.0000 C   0  0  0  0  0  0  0  0  0  0  0  0
    7.3604    0.2949    0.0000 C   0  0  0  0  0  0  0  0  0  0  0  0
    6.0985    1.5322    0.0000 C   0  0  0  0  0  0  0  0  0  0  0  0
    4.6566   -1.8245    0.0000 C   0  0  0  0  0  0  0  0  0  0  0  0
    3.9125   -1.3948    0.0000 C   0  0  0  0  0  0  0  0  0  0  0  0
    3.9254    0.2893    0.0000 C   0  0  0  0  0  0  0  0  0  0  0  0
    3.1546   -0.0703    0.0000 C   0  0  0  0  0  0  0  0  0  0  0  0
    3.1409   -1.8482    0.0000 C   0  0  0  0  0  0  0  0  0  0  0  0
    2.3726   -0.5058    0.0000 C   0  0  0  0  0  0  0  0  0  0  0  0
    2.3657   -1.4007    0.0000 C   0  0  0  0  0  0  0  0  0  0  0  0
    6.1683   -0.7738    0.0000 H   0  0  0  0  0  0  0  0  0  0  0  0
    5.9581   -0.8555    0.0000 H   0  0  0  0  0  0  0  0  0  0  0  0
    5.2413    0.2124    0.0000 H   0  0  0  0  0  0  0  0  0  0  0  0
  8  1  1  1  0  0  0
  2 21  2  0  0  0  0
  3  4  1  0  0  0  0
  3  5  1  0  0  0  0
  3 10  1  0  0  0  0
  3 22  1  6  0  0  0
  4  7  1  0  0  0  0
  4  8  1  0  0  0  0
  4 14  1  1  0  0  0
  5  6  1  0  0  0  0
  5 12  1  0  0  0  0
  5 23  1  1  0  0  0
  6  9  1  0  0  0  0
  6 11  1  0  0  0  0
  6 24  1  6  0  0  0
  7  9  1  0  0  0  0
  8 13  1  0  0  0  0
 10 13  1  0  0  0  0
 11 16  1  0  0  0  0
 11 17  1  1  0  0  0
 11 18  1  0  0  0  0
 12 15  1  0  0  0  0
 15 16  1  0  0  0  0
 16 19  2  0  0  0  0
 18 20  2  0  0  0  0
 19 21  1  0  0  0  0
 20 21  1  0  0  0  0
M  END
> <DATABASE_ID>
DB01541

> <DATABASE_NAME>
drugbank

> <SMILES>
[H][C@@]12CC[C@H](O)[C@@]1(C)CC[C@@]1([H])[C@@]2([H])CCC2=CC(=O)C=C[C@]12C

> <INCHI_IDENTIFIER>
InChI=1S/C19H26O2/c1-18-9-7-13(20)11-12(18)3-4-14-15-5-6-17(21)19(15,2)10-8-16(14)18/h7,9,11,14-17,21H,3-6,8,10H2,1-2H3/t14-,15-,16-,17-,18-,19-/m0/s1

> <INCHI_KEY>
RSIHSRDYCUFFLA-DYKIIFRCSA-N

> <FORMULA>
C19H26O2

> <MOLECULAR_WEIGHT>
286.4085

> <EXACT_MASS>
286.193280076

> <JCHEM_ACCEPTOR_COUNT>
2

> <JCHEM_AVERAGE_POLARIZABILITY>
33.26498421520803

> <JCHEM_BIOAVAILABILITY>
1

> <JCHEM_DONOR_COUNT>
1

> <JCHEM_FORMAL_CHARGE>
0

> <JCHEM_GHOSE_FILTER>
1

> <JCHEM_IUPAC>
(1S,2R,10R,11S,14S,15S)-14-hydroxy-2,15-dimethyltetracyclo[8.7.0.0²,⁷.0¹¹,¹⁵]heptadeca-3,6-dien-5-one

> <ALOGPS_LOGP>
3.08

> <JCHEM_LOGP>
3.363246787333333

> <ALOGPS_LOGS>
-4.04

> <JCHEM_MDDR_LIKE_RULE>
0

> <JCHEM_NUMBER_OF_RINGS>
4

> <JCHEM_PHYSIOLOGICAL_CHARGE>
0

> <JCHEM_PKA>
19.3777051076304

> <JCHEM_PKA_STRONGEST_ACIDIC>
18.86360929958847

> <JCHEM_PKA_STRONGEST_BASIC>
-0.8839587028635597

> <JCHEM_POLAR_SURFACE_AREA>
37.3

> <JCHEM_REFRACTIVITY>
85.52309999999999

> <JCHEM_ROTATABLE_BOND_COUNT>
0

> <JCHEM_RULE_OF_FIVE>
1

> <ALOGPS_SOLUBILITY>
2.59e-02 g/l

> <JCHEM_TRADITIONAL_IUPAC>
boldenone

> <JCHEM_VEBER_RULE>
1

> <DRUGBANK_ID>
DB01541

> <DRUG_GROUPS>
illicit; vet_approved

> <GENERIC_NAME>
Boldenone

> <SYNONYMS>
1,2-Dehydrotestosterone; 1,2-Didehydrotestosterone; 1,4-Androstadien-17beta-ol-3-one; 1,4-Androstadien-17β-ol-3-one; 17beta-Boldenone; 17β-hydroxyandrosta-1,4-dien-3-one; Boldenona; Boldenone; Boldenonum

> <INTERNATIONAL_BRANDS>
Equigan; Ganabol; Ultragan

$$$$
1542
  Mrv0541 02231215332D          

 21 22  0  0  1  0            999 V2000
    3.8592    0.6582    0.0000 O   0  0  0  0  0  0  0  0  0  0  0  0
    2.4519    0.9064    0.0000 O   0  0  0  0  0  0  0  0  0  0  0  0
    4.2717   -1.7063    0.0000 N   0  0  0  0  0  0  0  0  0  0  0  0
    4.2717   -0.0563    0.0000 C   0  0  0  0  0  0  0  0  0  0  0  0
    3.5571   -0.4688    0.0000 C   0  0  0  0  0  0  0  0  0  0  0  0
    4.9862   -0.4688    0.0000 C   0  0  0  0  0  0  0  0  0  0  0  0
    3.5571   -1.2938    0.0000 C   0  0  0  0  0  0  0  0  0  0  0  0
    4.9862   -1.2938    0.0000 C   0  0  0  0  0  0  0  0  0  0  0  0
    2.7447   -0.6121    0.0000 C   0  0  0  0  0  0  0  0  0  0  0  0
    4.6842    0.6582    0.0000 C   0  0  0  0  0  0  0  0  0  0  0  0
    4.2717   -2.5313    0.0000 C   0  0  0  0  0  0  0  0  0  0  0  0
    4.2717    1.3727    0.0000 C   0  0  0  0  0  0  0  0  0  0  0  0
    5.5092    0.6582    0.0000 C   0  0  0  0  0  0  0  0  0  0  0  0
    2.4624   -1.3873    0.0000 C   0  0  0  0  0  0  0  0  0  0  0  0
    3.2272    1.1886    0.0000 C   0  0  0  0  0  0  0  0  0  0  0  0
    4.6842    2.0872    0.0000 C   0  0  0  0  0  0  0  0  0  0  0  0
    5.9217    1.3727    0.0000 C   0  0  0  0  0  0  0  0  0  0  0  0
    3.3704    2.0010    0.0000 C   0  0  0  0  0  0  0  0  0  0  0  0
    5.5092    2.0872    0.0000 C   0  0  0  0  0  0  0  0  0  0  0  0
    1.6500   -1.5306    0.0000 C   0  0  0  0  0  0  0  0  0  0  0  0
    2.7384    2.5313    0.0000 C   0  0  0  0  0  0  0  0  0  0  0  0
  1  4  1  0  0  0  0
  1 15  1  0  0  0  0
  2 15  2  0  0  0  0
  3  7  1  0  0  0  0
  3  8  1  0  0  0  0
  3 11  1  0  0  0  0
  4  5  1  0  0  0  0
  4  6  1  0  0  0  0
  4 10  1  0  0  0  0
  5  7  1  0  0  0  0
  5  9  1  0  0  0  0
  6  8  1  0  0  0  0
  9 14  1  0  0  0  0
 10 12  2  0  0  0  0
 10 13  1  0  0  0  0
 12 16  1  0  0  0  0
 13 17  2  0  0  0  0
 14 20  2  0  0  0  0
 15 18  1  0  0  0  0
 16 19  2  0  0  0  0
 17 19  1  0  0  0  0
 18 21  1  0  0  0  0
M  END
> <DATABASE_ID>
DB01542

> <DATABASE_NAME>
drugbank

> <SMILES>
CCC(=O)OC1(CCN(C)CC1CC=C)C1=CC=CC=C1

> <INCHI_IDENTIFIER>
InChI=1S/C18H25NO2/c1-4-9-16-14-19(3)13-12-18(16,21-17(20)5-2)15-10-7-6-8-11-15/h4,6-8,10-11,16H,1,5,9,12-14H2,2-3H3

> <INCHI_KEY>
KGYFOSCXVAXULR-UHFFFAOYSA-N

> <FORMULA>
C18H25NO2

> <MOLECULAR_WEIGHT>
287.3966

> <EXACT_MASS>
287.188529049

> <JCHEM_ACCEPTOR_COUNT>
2

> <JCHEM_AVERAGE_POLARIZABILITY>
32.98772514842136

> <JCHEM_BIOAVAILABILITY>
1

> <JCHEM_DONOR_COUNT>
0

> <JCHEM_FORMAL_CHARGE>
0

> <JCHEM_GHOSE_FILTER>
1

> <JCHEM_IUPAC>
1-methyl-4-phenyl-3-(prop-2-en-1-yl)piperidin-4-yl propanoate

> <ALOGPS_LOGP>
3.82

> <JCHEM_LOGP>
3.362605049666666

> <ALOGPS_LOGS>
-3.79

> <JCHEM_MDDR_LIKE_RULE>
0

> <JCHEM_NUMBER_OF_RINGS>
2

> <JCHEM_PHYSIOLOGICAL_CHARGE>
1

> <JCHEM_PKA_STRONGEST_BASIC>
9.190227303161828

> <JCHEM_POLAR_SURFACE_AREA>
29.54

> <JCHEM_REFRACTIVITY>
85.6555

> <JCHEM_ROTATABLE_BOND_COUNT>
6

> <JCHEM_RULE_OF_FIVE>
1

> <ALOGPS_SOLUBILITY>
4.62e-02 g/l

> <JCHEM_TRADITIONAL_IUPAC>
allylprodine

> <JCHEM_VEBER_RULE>
1

> <DRUGBANK_ID>
DB01542

> <DRUG_GROUPS>
experimental; illicit

> <GENERIC_NAME>
Allylprodine

$$$$

  Mrv1909 02072021382D          

 25 28  0  0  0  0            999 V2000
    1.4977    0.5560    0.0000 C   0  0  2  0  0  0  0  0  0  0  0  0
    1.4977   -0.2515    0.0000 C   0  0  2  0  0  0  0  0  0  0  0  0
    0.7961   -0.6669    0.0000 C   0  0  2  0  0  0  0  0  0  0  0  0
    0.7961   -1.4976    0.0000 C   0  0  0  0  0  0  0  0  0  0  0  0
    0.0854   -1.9085    0.0000 C   0  0  0  0  0  0  0  0  0  0  0  0
   -0.6300   -1.4976    0.0000 C   0  0  0  0  0  0  0  0  0  0  0  0
   -0.6300   -0.6669    0.0000 C   0  0  1  0  0  0  0  0  0  0  0  0
    0.0854   -0.2515    0.0000 C   0  0  1  0  0  0  0  0  0  0  0  0
    0.0854    0.5560    0.0000 C   0  0  0  0  0  0  0  0  0  0  0  0
    0.7961    0.9716    0.0000 C   0  0  0  0  0  0  0  0  0  0  0  0
    0.0854   -1.0776    0.0000 H   0  0  0  0  0  0  0  0  0  0  0  0
   -1.3501   -0.2515    0.0000 C   0  0  0  0  0  0  0  0  0  0  0  0
   -2.0699   -0.6669    0.0000 C   0  0  0  0  0  0  0  0  0  0  0  0
   -2.0699   -1.4976    0.0000 C   0  0  0  0  0  0  0  0  0  0  0  0
   -2.7854   -1.9085    0.0000 O   0  0  0  0  0  0  0  0  0  0  0  0
   -1.3501   -1.9085    0.0000 C   0  0  0  0  0  0  0  0  0  0  0  0
   -0.6300    0.1546    0.0000 H   0  0  0  0  0  0  0  0  0  0  0  0
    0.7961    0.1546    0.0000 H   0  0  0  0  0  0  0  0  0  0  0  0
    2.2916   -0.5053    0.0000 C   0  0  0  0  0  0  0  0  0  0  0  0
    2.7854    0.1546    0.0000 C   0  0  0  0  0  0  0  0  0  0  0  0
    2.2916    0.8100    0.0000 C   0  0  2  0  0  0  0  0  0  0  0  0
    2.2916    1.6315    0.0000 O   0  0  0  0  0  0  0  0  0  0  0  0
    1.4977   -1.0776    0.0000 H   0  0  0  0  0  0  0  0  0  0  0  0
    1.4977    1.3823    0.0000 C   0  0  0  0  0  0  0  0  0  0  0  0
    0.8700    1.9085    0.0000 C   0  0  0  0  0  0  0  0  0  0  0  0
  2  1  1  0  0  0  0
  3  2  1  0  0  0  0
  4  3  1  0  0  0  0
  5  4  1  0  0  0  0
  6  5  1  0  0  0  0
  6  7  1  0  0  0  0
  7  8  1  0  0  0  0
  8  9  1  0  0  0  0
  9 10  1  0  0  0  0
 10  1  1  0  0  0  0
  8 11  1  6  0  0  0
  3  8  1  0  0  0  0
 12  7  1  0  0  0  0
 13 12  1  0  0  0  0
 14 13  1  0  0  0  0
 15 14  2  0  0  0  0
 16 14  1  0  0  0  0
 16  6  2  0  0  0  0
  7 17  1  1  0  0  0
  3 18  1  1  0  0  0
 19  2  1  0  0  0  0
 19 20  1  0  0  0  0
 20 21  1  0  0  0  0
 21  1  1  0  0  0  0
 21 22  1  1  0  0  0
  2 23  1  6  0  0  0
  1 24  1  1  0  0  0
 25 24  1  0  0  0  0
M  END
> <DATABASE_ID>
DB01543

> <DATABASE_NAME>
drugbank

> <SMILES>
[H][C@@]12CC[C@H](O)[C@@]1(CC)CC[C@]1([H])[C@@]3([H])CCC(=O)C=C3CC[C@@]21[H]

> <INCHI_IDENTIFIER>
InChI=1S/C19H28O2/c1-2-19-10-9-15-14-6-4-13(20)11-12(14)3-5-16(15)17(19)7-8-18(19)21/h11,14-18,21H,2-10H2,1H3/t14-,15+,16+,17-,18-,19-/m0/s1

> <INCHI_KEY>
FBYZQDCRLYHHHP-ZOFHRBRSSA-N

> <FORMULA>
C19H28O2

> <MOLECULAR_WEIGHT>
288.431

> <EXACT_MASS>
288.208930142

> <JCHEM_ACCEPTOR_COUNT>
2

> <JCHEM_ATOM_COUNT>
49

> <JCHEM_AVERAGE_NEUTRAL_MICROSPECIES_CHARGE>
1.7958384445041015e-08

> <JCHEM_AVERAGE_POLARIZABILITY>
34.35541432549216

> <JCHEM_BIOAVAILABILITY>
1

> <JCHEM_DONOR_COUNT>
1

> <JCHEM_FORMAL_CHARGE>
0

> <JCHEM_GHOSE_FILTER>
1

> <JCHEM_IUPAC>
(1S,3aS,3bR,9aR,9bS,11aS)-11a-ethyl-1-hydroxy-1H,2H,3H,3aH,3bH,4H,5H,7H,8H,9H,9aH,9bH,10H,11H,11aH-cyclopenta[a]phenanthren-7-one

> <ALOGPS_LOGP>
3.05

> <JCHEM_LOGP>
3.5099448426666675

> <ALOGPS_LOGS>
-3.98

> <JCHEM_MDDR_LIKE_RULE>
0

> <JCHEM_NEUTRAL_CHARGE>
0

> <JCHEM_NUMBER_OF_RINGS>
4

> <JCHEM_PHYSIOLOGICAL_CHARGE>
0

> <JCHEM_PKA>
19.694026948246186

> <JCHEM_PKA_STRONGEST_ACIDIC>
18.25133423410007

> <JCHEM_PKA_STRONGEST_BASIC>
-0.7455874006596787

> <JCHEM_POLAR_SURFACE_AREA>
37.3

> <JCHEM_REFRACTIVITY>
84.5557

> <JCHEM_ROTATABLE_BOND_COUNT>
1

> <JCHEM_RULE_OF_FIVE>
1

> <ALOGPS_SOLUBILITY>
3.02e-02 g/l

> <JCHEM_TRADITIONAL_IUPAC>
Ogen

> <JCHEM_VEBER_RULE>
1

> <DRUGBANK_ID>
DB01543

> <DRUG_GROUPS>
experimental; illicit

> <GENERIC_NAME>
18-methyl-19-nortestosterone

> <SYNONYMS>
13beta-ethyl-17beta-hydroxygon-4-en-3-one

$$$$
1544
  Mrv0541 02231215332D          

 23 25  0  0  0  0            999 V2000
    3.8786   -1.2313    0.0000 F   0  0  0  0  0  0  0  0  0  0  0  0
    2.6107    2.5929    0.0000 O   0  0  0  0  0  0  0  0  0  0  0  0
    2.1373   -2.5929    0.0000 O   0  5  0  0  0  0  0  0  0  0  0  0
    3.5619   -2.4806    0.0000 O   0  0  0  0  0  0  0  0  0  0  0  0
    2.4543    1.2046    0.0000 N   0  0  0  0  0  0  0  0  0  0  0  0
    4.3081    1.2046    0.0000 N   0  0  0  0  0  0  0  0  0  0  0  0
    2.8172   -2.1255    0.0000 N   0  3  0  0  0  0  0  0  0  0  0  0
    3.3812    0.0423    0.0000 C   0  0  0  0  0  0  0  0  0  0  0  0
    2.6379    0.4003    0.0000 C   0  0  0  0  0  0  0  0  0  0  0  0
    4.1245    0.4003    0.0000 C   0  0  0  0  0  0  0  0  0  0  0  0
    3.4586   -0.8135    0.0000 C   0  0  0  0  0  0  0  0  0  0  0  0
    3.7937    1.8496    0.0000 C   0  0  0  0  0  0  0  0  0  0  0  0
    1.9205   -0.0728    0.0000 C   0  0  0  0  0  0  0  0  0  0  0  0
    2.9687    1.8496    0.0000 C   0  0  0  0  0  0  0  0  0  0  0  0
    4.7695   -0.1141    0.0000 C   0  0  0  0  0  0  0  0  0  0  0  0
    2.7524   -1.3031    0.0000 C   0  0  0  0  0  0  0  0  0  0  0  0
    1.9781   -0.9302    0.0000 C   0  0  0  0  0  0  0  0  0  0  0  0
    1.6500    1.3881    0.0000 C   0  0  0  0  0  0  0  0  0  0  0  0
    4.6466   -0.9299    0.0000 C   0  0  0  0  0  0  0  0  0  0  0  0
    5.5375    0.1873    0.0000 C   0  0  0  0  0  0  0  0  0  0  0  0
    5.2915   -1.4442    0.0000 C   0  0  0  0  0  0  0  0  0  0  0  0
    6.1825   -0.3271    0.0000 C   0  0  0  0  0  0  0  0  0  0  0  0
    6.0595   -1.1429    0.0000 C   0  0  0  0  0  0  0  0  0  0  0  0
  1 19  1  0  0  0  0
  2 14  2  0  0  0  0
  3  7  1  0  0  0  0
  4  7  2  0  0  0  0
  5  9  1  0  0  0  0
  5 14  1  0  0  0  0
  5 18  1  0  0  0  0
  6 10  2  0  0  0  0
  6 12  1  0  0  0  0
  7 16  1  0  0  0  0
  8  9  2  0  0  0  0
  8 10  1  0  0  0  0
  8 11  1  0  0  0  0
  9 13  1  0  0  0  0
 10 15  1  0  0  0  0
 11 16  2  0  0  0  0
 12 14  1  0  0  0  0
 13 17  2  0  0  0  0
 15 19  1  0  0  0  0
 15 20  2  0  0  0  0
 16 17  1  0  0  0  0
 19 21  2  0  0  0  0
 20 22  1  0  0  0  0
 21 23  1  0  0  0  0
 22 23  2  0  0  0  0
M  CHG  2   3  -1   7   1
M  END
> <DATABASE_ID>
DB01544

> <DATABASE_NAME>
drugbank

> <SMILES>
CN1C2=C(C=C(C=C2)[N+]([O-])=O)C(=NCC1=O)C1=CC=CC=C1F

> <INCHI_IDENTIFIER>
InChI=1S/C16H12FN3O3/c1-19-14-7-6-10(20(22)23)8-12(14)16(18-9-15(19)21)11-4-2-3-5-13(11)17/h2-8H,9H2,1H3

> <INCHI_KEY>
PPTYJKAXVCCBDU-UHFFFAOYSA-N

> <FORMULA>
C16H12FN3O3

> <MOLECULAR_WEIGHT>
313.2832

> <EXACT_MASS>
313.08626947

> <JCHEM_ACCEPTOR_COUNT>
4

> <JCHEM_AVERAGE_POLARIZABILITY>
29.601604891915457

> <JCHEM_BIOAVAILABILITY>
1

> <JCHEM_DONOR_COUNT>
0

> <JCHEM_FORMAL_CHARGE>
0

> <JCHEM_GHOSE_FILTER>
1

> <JCHEM_IUPAC>
5-(2-fluorophenyl)-1-methyl-7-nitro-2,3-dihydro-1H-1,4-benzodiazepin-2-one

> <ALOGPS_LOGP>
2.20

> <JCHEM_LOGP>
2.554728016666667

> <ALOGPS_LOGS>
-4.56

> <JCHEM_MDDR_LIKE_RULE>
0

> <JCHEM_NUMBER_OF_RINGS>
3

> <JCHEM_PHYSIOLOGICAL_CHARGE>
0

> <JCHEM_PKA_STRONGEST_BASIC>
1.6951775509848623

> <JCHEM_POLAR_SURFACE_AREA>
78.49000000000001

> <JCHEM_REFRACTIVITY>
82.54820000000002

> <JCHEM_ROTATABLE_BOND_COUNT>
2

> <JCHEM_RULE_OF_FIVE>
1

> <ALOGPS_SOLUBILITY>
8.58e-03 g/l

> <JCHEM_TRADITIONAL_IUPAC>
flunitrazepam

> <JCHEM_VEBER_RULE>
0

> <DRUGBANK_ID>
DB01544

> <DRUG_GROUPS>
approved; illicit

> <GENERIC_NAME>
Flunitrazepam

> <SYNONYMS>
Flunitrazepamum

> <INTERNATIONAL_BRANDS>
Hipnosedon; Hypnodorm; Narcozep; Rohypnol; Roipnol

$$$$
1545
  Mrv0541 02231215332D          

 25 27  0  0  1  0            999 V2000
    2.5467   -2.7925    0.0000 Cl  0  0  0  0  0  0  0  0  0  0  0  0
    3.6080   -1.8983    0.0000 F   0  0  0  0  0  0  0  0  0  0  0  0
    4.7038    1.9876    0.0000 O   0  0  0  0  0  0  0  0  0  0  0  0
    2.3403    1.9259    0.0000 O   0  0  0  0  0  0  0  0  0  0  0  0
    3.4164    2.6076    0.0000 O   0  0  0  0  0  0  0  0  0  0  0  0
    2.1839    0.5376    0.0000 N   0  0  0  0  0  0  0  0  0  0  0  0
    4.0375    0.5376    0.0000 N   0  0  0  0  0  0  0  0  0  0  0  0
    3.1107   -0.6247    0.0000 C   0  0  0  0  0  0  0  0  0  0  0  0
    3.8540   -0.2667    0.0000 C   0  0  0  0  0  0  0  0  0  0  0  0
    3.5232    1.1826    0.0000 C   0  0  0  0  0  0  0  0  0  0  0  0
    2.3674   -0.2667    0.0000 C   0  0  0  0  0  0  0  0  0  0  0  0
    4.4990   -0.7811    0.0000 C   0  0  0  0  0  0  0  0  0  0  0  0
    2.6982    1.1826    0.0000 C   0  0  0  0  0  0  0  0  0  0  0  0
    3.1881   -1.4805    0.0000 C   0  0  0  0  0  0  0  0  0  0  0  0
    1.6500   -0.7398    0.0000 C   0  0  0  0  0  0  0  0  0  0  0  0
    3.8811    1.9259    0.0000 C   0  0  0  0  0  0  0  0  0  0  0  0
    2.4818   -1.9701    0.0000 C   0  0  0  0  0  0  0  0  0  0  0  0
    1.7076   -1.5972    0.0000 C   0  0  0  0  0  0  0  0  0  0  0  0
    4.3760   -1.5969    0.0000 C   0  0  0  0  0  0  0  0  0  0  0  0
    5.2670   -0.4797    0.0000 C   0  0  0  0  0  0  0  0  0  0  0  0
    5.0210   -2.1113    0.0000 C   0  0  0  0  0  0  0  0  0  0  0  0
    5.9120   -0.9940    0.0000 C   0  0  0  0  0  0  0  0  0  0  0  0
    5.7890   -1.8099    0.0000 C   0  0  0  0  0  0  0  0  0  0  0  0
    5.0618    2.7308    0.0000 C   0  0  0  0  0  0  0  0  0  0  0  0
    5.8845    2.7925    0.0000 C   0  0  0  0  0  0  0  0  0  0  0  0
  1 17  1  0  0  0  0
  2 19  1  0  0  0  0
  3 16  1  0  0  0  0
  3 24  1  0  0  0  0
  4 13  2  0  0  0  0
  5 16  2  0  0  0  0
  6 11  1  0  0  0  0
  6 13  1  0  0  0  0
  7  9  2  0  0  0  0
  7 10  1  0  0  0  0
  8  9  1  0  0  0  0
  8 11  2  0  0  0  0
  8 14  1  0  0  0  0
  9 12  1  0  0  0  0
 10 13  1  0  0  0  0
 10 16  1  0  0  0  0
 11 15  1  0  0  0  0
 12 19  1  0  0  0  0
 12 20  2  0  0  0  0
 14 17  2  0  0  0  0
 15 18  2  0  0  0  0
 17 18  1  0  0  0  0
 19 21  2  0  0  0  0
 20 22  1  0  0  0  0
 21 23  1  0  0  0  0
 22 23  2  0  0  0  0
 24 25  1  0  0  0  0
M  END
> <DATABASE_ID>
DB01545

> <DATABASE_NAME>
drugbank

> <SMILES>
CCOC(=O)C1N=C(C2=CC=CC=C2F)C2=C(NC1=O)C=CC(Cl)=C2

> <INCHI_IDENTIFIER>
InChI=1S/C18H14ClFN2O3/c1-2-25-18(24)16-17(23)21-14-8-7-10(19)9-12(14)15(22-16)11-5-3-4-6-13(11)20/h3-9,16H,2H2,1H3,(H,21,23)

> <INCHI_KEY>
CUCHJCMWNFEYOM-UHFFFAOYSA-N

> <FORMULA>
C18H14ClFN2O3

> <MOLECULAR_WEIGHT>
360.767

> <EXACT_MASS>
360.067698236

> <JCHEM_ACCEPTOR_COUNT>
3

> <JCHEM_AVERAGE_POLARIZABILITY>
35.025575609000455

> <JCHEM_BIOAVAILABILITY>
1

> <JCHEM_DONOR_COUNT>
1

> <JCHEM_FORMAL_CHARGE>
0

> <JCHEM_GHOSE_FILTER>
1

> <JCHEM_IUPAC>
ethyl 7-chloro-5-(2-fluorophenyl)-2-oxo-2,3-dihydro-1H-1,4-benzodiazepine-3-carboxylate

> <ALOGPS_LOGP>
3.36

> <JCHEM_LOGP>
3.8517424769999993

> <ALOGPS_LOGS>
-4.84

> <JCHEM_MDDR_LIKE_RULE>
0

> <JCHEM_NUMBER_OF_RINGS>
3

> <JCHEM_PHYSIOLOGICAL_CHARGE>
0

> <JCHEM_PKA>
12.12226768398159

> <JCHEM_PKA_STRONGEST_ACIDIC>
9.514860842242816

> <JCHEM_PKA_STRONGEST_BASIC>
-1.4348767610344808

> <JCHEM_POLAR_SURFACE_AREA>
67.76

> <JCHEM_REFRACTIVITY>
92.41020000000003

> <JCHEM_ROTATABLE_BOND_COUNT>
4

> <JCHEM_RULE_OF_FIVE>
1

> <ALOGPS_SOLUBILITY>
5.25e-03 g/l

> <JCHEM_TRADITIONAL_IUPAC>
ethyl loflazepate

> <JCHEM_VEBER_RULE>
0

> <DRUGBANK_ID>
DB01545

> <DRUG_GROUPS>
experimental; illicit

> <GENERIC_NAME>
Ethyl loflazepate

> <SYNONYMS>
Ethyl fluclozepate; Ethyl loflazepate; Ethylis loflazepas; Loflazepate d'ethyle; Loflazepato de etilo

> <INTERNATIONAL_BRANDS>
Azutolem; Bigson; Medetax; Meilax; Ronlax; Sukarnase; Victan

$$$$
1546
  Mrv0541 02231215332D          

 14 15  0  0  1  0            999 V2000
    3.8597   -1.4804    0.0000 N   0  0  0  0  0  0  0  0  0  0  0  0
    5.1795    1.5859    0.0000 N   0  0  0  0  0  0  0  0  0  0  0  0
    4.9232    0.8018    0.0000 C   0  0  0  0  0  0  0  0  0  0  0  0
    4.1159    0.6316    0.0000 C   0  0  0  0  0  0  0  0  0  0  0  0
    3.8597   -0.1526    0.0000 C   0  0  0  0  0  0  0  0  0  0  0  0
    5.4742    0.1877    0.0000 C   0  0  0  0  0  0  0  0  0  0  0  0
    3.0791   -0.4040    0.0000 C   0  0  0  0  0  0  0  0  0  0  0  0
    3.0791   -1.2290    0.0000 C   0  0  0  0  0  0  0  0  0  0  0  0
    4.3412   -0.8165    0.0000 C   0  0  0  0  0  0  0  0  0  0  0  0
    6.2815    0.3578    0.0000 C   0  0  0  0  0  0  0  0  0  0  0  0
    2.3645    0.0085    0.0000 C   0  0  0  0  0  0  0  0  0  0  0  0
    2.3645   -1.6415    0.0000 C   0  0  0  0  0  0  0  0  0  0  0  0
    1.6500   -0.4040    0.0000 C   0  0  0  0  0  0  0  0  0  0  0  0
    1.6500   -1.2290    0.0000 C   0  0  0  0  0  0  0  0  0  0  0  0
  1  8  1  0  0  0  0
  1  9  1  0  0  0  0
  2  3  1  0  0  0  0
  3  4  1  0  0  0  0
  3  6  1  0  0  0  0
  4  5  1  0  0  0  0
  5  7  1  0  0  0  0
  5  9  2  0  0  0  0
  6 10  1  0  0  0  0
  7  8  1  0  0  0  0
  7 11  2  0  0  0  0
  8 12  2  0  0  0  0
 11 13  1  0  0  0  0
 12 14  1  0  0  0  0
 13 14  2  0  0  0  0
M  END
> <DATABASE_ID>
DB01546

> <DATABASE_NAME>
drugbank

> <SMILES>
CCC(N)CC1=CNC2=CC=CC=C12

> <INCHI_IDENTIFIER>
InChI=1S/C12H16N2/c1-2-10(13)7-9-8-14-12-6-4-3-5-11(9)12/h3-6,8,10,14H,2,7,13H2,1H3

> <INCHI_KEY>
ZXUMUPVQYAFTLF-UHFFFAOYSA-N

> <FORMULA>
C12H16N2

> <MOLECULAR_WEIGHT>
188.2688

> <EXACT_MASS>
188.131348522

> <JCHEM_ACCEPTOR_COUNT>
1

> <JCHEM_AVERAGE_POLARIZABILITY>
22.135311906787653

> <JCHEM_BIOAVAILABILITY>
1

> <JCHEM_DONOR_COUNT>
2

> <JCHEM_FORMAL_CHARGE>
0

> <JCHEM_GHOSE_FILTER>
1

> <JCHEM_IUPAC>
1-(1H-indol-3-yl)butan-2-amine

> <ALOGPS_LOGP>
2.55

> <JCHEM_LOGP>
2.425534869666666

> <ALOGPS_LOGS>
-2.59

> <JCHEM_MDDR_LIKE_RULE>
0

> <JCHEM_NUMBER_OF_RINGS>
2

> <JCHEM_PHYSIOLOGICAL_CHARGE>
1

> <JCHEM_PKA_STRONGEST_ACIDIC>
17.134816390438157

> <JCHEM_PKA_STRONGEST_BASIC>
9.99035203699291

> <JCHEM_POLAR_SURFACE_AREA>
41.81

> <JCHEM_REFRACTIVITY>
59.31570000000001

> <JCHEM_ROTATABLE_BOND_COUNT>
3

> <JCHEM_RULE_OF_FIVE>
1

> <ALOGPS_SOLUBILITY>
4.81e-01 g/l

> <JCHEM_TRADITIONAL_IUPAC>
α-ethyltryptamine

> <JCHEM_VEBER_RULE>
0

> <DRUGBANK_ID>
DB01546

> <DRUG_GROUPS>
illicit; investigational; withdrawn

> <GENERIC_NAME>
Etryptamine

> <SYNONYMS>
3-(2-aminobutyl)indole; alpha-ethyltryptamine; α-ethyltryptamine; αET

> <INTERNATIONAL_BRANDS>
Monase 

> <SALTS>
Alpha-ethyltryptamine acetate

$$$$
1547
  Mrv0541 02231215332D          

 25 28  0  0  1  0            999 V2000
    6.7068    0.9949    0.0000 O   0  0  0  0  0  0  0  0  0  0  0  0
    6.0024   -1.9494    0.0000 O   0  0  0  0  0  0  0  0  0  0  0  0
    3.8357   -0.6834    0.0000 O   0  0  0  0  0  0  0  0  0  0  0  0
    2.3658    0.1501    0.0000 O   0  0  0  0  0  0  0  0  0  0  0  0
    5.6444    1.3999    0.0000 N   0  0  0  0  0  0  0  0  0  0  0  0
    5.2780    0.1700    0.0000 C   0  0  1  0  0  0  0  0  0  0  0  0
    5.9924    0.5825    0.0000 C   0  0  1  0  0  0  0  0  0  0  0  0
    5.9924    1.4074    0.0000 C   0  0  1  0  0  0  0  0  0  0  0  0
    5.2647   -0.6891    0.0000 C   0  0  0  0  0  0  0  0  0  0  0  0
    5.1105    0.4752    0.0000 C   0  0  0  0  0  0  0  0  0  0  0  0
    6.7431    0.1644    0.0000 C   0  0  0  0  0  0  0  0  0  0  0  0
    4.5635    0.5825    0.0000 C   0  0  0  0  0  0  0  0  0  0  0  0
    5.2780    1.8199    0.0000 C   0  0  0  0  0  0  0  0  0  0  0  0
    6.0055   -1.1245    0.0000 C   0  0  1  0  0  0  0  0  0  0  0  0
    5.0415    1.1316    0.0000 C   0  0  0  0  0  0  0  0  0  0  0  0
    6.7497   -0.6948    0.0000 C   0  0  0  0  0  0  0  0  0  0  0  0
    4.5635    1.4074    0.0000 C   0  0  0  0  0  0  0  0  0  0  0  0
    3.8261    0.1415    0.0000 C   0  0  0  0  0  0  0  0  0  0  0  0
    5.8158    2.2068    0.0000 C   0  0  0  0  0  0  0  0  0  0  0  0
    3.8261    1.8486    0.0000 C   0  0  0  0  0  0  0  0  0  0  0  0
    3.0787    0.5654    0.0000 C   0  0  0  0  0  0  0  0  0  0  0  0
    3.0787    1.4246    0.0000 C   0  0  0  0  0  0  0  0  0  0  0  0
    3.1261   -1.1042    0.0000 C   0  0  0  0  0  0  0  0  0  0  0  0
    1.6499    0.5598    0.0000 C   0  0  0  0  0  0  0  0  0  0  0  0
    6.3224    1.9789    0.0000 H   0  0  0  0  0  0  0  0  0  0  0  0
  7  1  1  1  0  0  0
 14  2  1  1  0  0  0
  3 18  1  0  0  0  0
  3 23  1  0  0  0  0
  4 21  1  0  0  0  0
  4 24  1  0  0  0  0
  5  8  1  0  0  0  0
  5 15  1  0  0  0  0
  5 19  1  0  0  0  0
  6  7  1  0  0  0  0
  6  9  1  6  0  0  0
  6 10  1  0  0  0  0
  6 12  1  0  0  0  0
  7  8  1  0  0  0  0
  7 11  1  0  0  0  0
  8 13  1  0  0  0  0
  8 25  1  6  0  0  0
  9 14  1  0  0  0  0
 10 15  1  0  0  0  0
 11 16  1  0  0  0  0
 12 17  2  0  0  0  0
 12 18  1  0  0  0  0
 13 17  1  0  0  0  0
 14 16  1  0  0  0  0
 17 20  1  0  0  0  0
 18 21  2  0  0  0  0
 20 22  2  0  0  0  0
 21 22  1  0  0  0  0
M  END
> <DATABASE_ID>
DB01547

> <DATABASE_NAME>
drugbank

> <SMILES>
[H][C@]12CC3=C(C(OC)=C(OC)C=C3)[C@@]3(CCN1C)C[C@H](O)CC[C@@]23O

> <INCHI_IDENTIFIER>
InChI=1S/C19H27NO4/c1-20-9-8-18-11-13(21)6-7-19(18,22)15(20)10-12-4-5-14(23-2)17(24-3)16(12)18/h4-5,13,15,21-22H,6-11H2,1-3H3/t13-,15+,18+,19-/m1/s1

> <INCHI_KEY>
LCAHPIFLPICNRW-OPGCRTJHSA-N

> <FORMULA>
C19H27NO4

> <MOLECULAR_WEIGHT>
333.422

> <EXACT_MASS>
333.194008357

> <JCHEM_ACCEPTOR_COUNT>
5

> <JCHEM_AVERAGE_POLARIZABILITY>
36.194114568948756

> <JCHEM_BIOAVAILABILITY>
1

> <JCHEM_DONOR_COUNT>
2

> <JCHEM_FORMAL_CHARGE>
0

> <JCHEM_GHOSE_FILTER>
1

> <JCHEM_IUPAC>
(1R,9R,10S,13R)-3,4-dimethoxy-17-methyl-17-azatetracyclo[7.5.3.0¹,¹⁰.0²,⁷]heptadeca-2(7),3,5-triene-10,13-diol

> <ALOGPS_LOGP>
1.61

> <JCHEM_LOGP>
1.0239459829999995

> <ALOGPS_LOGS>
-2.19

> <JCHEM_MDDR_LIKE_RULE>
0

> <JCHEM_NUMBER_OF_RINGS>
4

> <JCHEM_PHYSIOLOGICAL_CHARGE>
1

> <JCHEM_PKA>
15.245804900425412

> <JCHEM_PKA_STRONGEST_ACIDIC>
13.64359641397979

> <JCHEM_PKA_STRONGEST_BASIC>
8.898542192408778

> <JCHEM_POLAR_SURFACE_AREA>
62.160000000000004

> <JCHEM_REFRACTIVITY>
91.993

> <JCHEM_ROTATABLE_BOND_COUNT>
2

> <JCHEM_RULE_OF_FIVE>
1

> <ALOGPS_SOLUBILITY>
2.15e+00 g/l

> <JCHEM_TRADITIONAL_IUPAC>
drotebanol

> <JCHEM_VEBER_RULE>
0

> <DRUGBANK_ID>
DB01547

> <DRUG_GROUPS>
experimental; illicit

> <GENERIC_NAME>
Drotebanol

$$$$

  Mrv1572004081602342D          

 33 39  0  0  0  0            999 V2000
    0.4104    0.9572    0.0000 C   0  0  2  0  0  0  0  0  0  0  0  0
    0.0256    0.2433    0.0000 C   0  0  1  0  0  0  0  0  0  0  0  0
    0.0000    1.6627    0.0000 C   0  0  2  0  0  0  0  0  0  0  0  0
    1.2441    0.9572    0.0000 C   0  0  0  0  0  0  0  0  0  0  0  0
   -0.8208    1.6627    0.0000 C   0  0  2  0  0  0  0  0  0  0  0  0
    1.6674    1.6798    0.0000 C   0  0  0  0  0  0  0  0  0  0  0  0
    0.8080    2.1929    0.0000 O   0  0  0  0  0  0  0  0  0  0  0  0
    0.4104   -0.4536    0.0000 C   0  0  2  0  0  0  0  0  0  0  0  0
   -1.2099    0.9443    0.0000 C   0  0  2  0  0  0  0  0  0  0  0  0
    0.0898   -1.1417    0.0000 N   0  0  0  0  0  0  0  0  0  0  0  0
    1.6674    0.2433    0.0000 C   0  0  0  0  0  0  0  0  0  0  0  0
   -0.7994    0.2433    0.0000 C   0  0  0  0  0  0  0  0  0  0  0  0
    1.2441   -0.4536    0.0000 C   0  0  0  0  0  0  0  0  0  0  0  0
   -0.1154    0.9572    0.0000 C   0  0  0  0  0  0  0  0  0  0  0  0
   -0.6413    0.9572    0.0000 C   0  0  0  0  0  0  0  0  0  0  0  0
    0.8721    0.3459    0.0000 C   0  0  0  0  0  0  0  0  0  0  0  0
   -2.0522    0.9572    0.0000 C   0  0  0  0  0  0  0  0  0  0  0  0
    0.0898   -2.1337    0.0000 C   0  0  0  0  0  0  0  0  0  0  0  0
    2.5138    1.6798    0.0000 C   0  0  0  0  0  0  0  0  0  0  0  0
    0.8935   -2.1337    0.0000 C   0  0  0  0  0  0  0  0  0  0  0  0
    0.8721   -1.1417    0.0000 C   0  0  0  0  0  0  0  0  0  0  0  0
    1.6245   -2.6211    0.0000 C   0  0  0  0  0  0  0  0  0  0  0  0
    1.6245   -1.6207    0.0000 C   0  0  0  0  0  0  0  0  0  0  0  0
    2.5138    0.2433    0.0000 C   0  0  0  0  0  0  0  0  0  0  0  0
   -1.1714    2.2826    0.0000 O   0  0  0  0  0  0  0  0  0  0  0  0
    2.9114    0.9443    0.0000 C   0  0  0  0  0  0  0  0  0  0  0  0
   -2.9371    0.9572    0.0000 O   0  0  0  0  0  0  0  0  0  0  0  0
    2.9371    2.3938    0.0000 O   0  0  0  0  0  0  0  0  0  0  0  0
   -2.4497    0.1920    0.0000 C   0  0  0  0  0  0  0  0  0  0  0  0
   -2.4925    1.6498    0.0000 C   0  0  0  0  0  0  0  0  0  0  0  0
   -2.0522    2.2826    0.0000 C   0  0  0  0  0  0  0  0  0  0  0  0
    0.9479   -1.2971    0.0000 H   0  0  0  0  0  0  0  0  0  0  0  0
   -0.2863    2.6211    0.0000 H   0  0  0  0  0  0  0  0  0  0  0  0
  2  1  1  0  0  0  0
  3  1  1  0  0  0  0
  4  1  1  0  0  0  0
  5  3  1  0  0  0  0
  6  4  1  0  0  0  0
  3  7  1  0  0  0  0
  8  2  1  0  0  0  0
  9  5  1  0  0  0  0
 10 21  1  0  0  0  0
 11  4  2  0  0  0  0
 12  2  1  0  0  0  0
 13 11  1  0  0  0  0
  2 14  1  6  0  0  0
  5 15  1  0  0  0  0
  1 16  1  1  0  0  0
  9 17  1  6  0  0  0
 18 10  1  0  0  0  0
 19  6  2  0  0  0  0
 20 18  1  0  0  0  0
 21 16  1  0  0  0  0
 22 20  1  0  0  0  0
 23 20  1  0  0  0  0
 24 11  1  0  0  0  0
  5 25  1  6  0  0  0
 26 24  2  0  0  0  0
 27 17  1  0  0  0  0
 28 19  1  0  0  0  0
 29 17  1  0  0  0  0
 30 17  1  0  0  0  0
 31 25  1  0  0  0  0
  6  7  1  0  0  0  0
 12  9  1  0  0  0  0
  8 10  1  0  0  0  0
  8 13  1  0  0  0  0
 14 15  1  0  0  0  0
 19 26  1  0  0  0  0
 22 23  1  0  0  0  0
  8 32  1  6  0  0  0
  3 33  1  1  0  0  0
M  END
> <DATABASE_ID>
DB01548

> <DATABASE_NAME>
drugbank

> <SMILES>
[H][C@@]12OC3=C(O)C=CC4=C3[C@@]11CCN(CC3CC3)[C@]([H])(C4)[C@]11CC[C@@]2(OC)[C@H](C1)C(C)(C)O

> <INCHI_IDENTIFIER>
InChI=1S/C26H35NO4/c1-23(2,29)18-13-24-8-9-26(18,30-3)22-25(24)10-11-27(14-15-4-5-15)19(24)12-16-6-7-17(28)21(31-22)20(16)25/h6-7,15,18-19,22,28-29H,4-5,8-14H2,1-3H3/t18-,19-,22-,24-,25+,26-/m1/s1

> <INCHI_KEY>
OIJXLIIMXHRJJH-KNLIIKEYSA-N

> <FORMULA>
C26H35NO4

> <MOLECULAR_WEIGHT>
425.569

> <EXACT_MASS>
425.256608611

> <JCHEM_ACCEPTOR_COUNT>
5

> <JCHEM_ATOM_COUNT>
66

> <JCHEM_AVERAGE_POLARIZABILITY>
47.86352677677233

> <JCHEM_BIOAVAILABILITY>
1

> <JCHEM_DONOR_COUNT>
2

> <JCHEM_FORMAL_CHARGE>
0

> <JCHEM_GHOSE_FILTER>
1

> <JCHEM_IUPAC>
(1S,2R,6S,14R,15R,16R)-3-(cyclopropylmethyl)-16-(2-hydroxypropan-2-yl)-15-methoxy-13-oxa-3-azahexacyclo[13.2.2.1²,⁸.0¹,⁶.0⁶,¹⁴.0⁷,¹²]icosa-7,9,11-trien-11-ol

> <ALOGPS_LOGP>
3.52

> <JCHEM_LOGP>
2.284401769773857

> <ALOGPS_LOGS>
-3.61

> <JCHEM_MDDR_LIKE_RULE>
0

> <JCHEM_NUMBER_OF_RINGS>
7

> <JCHEM_PHYSIOLOGICAL_CHARGE>
1

> <JCHEM_PKA>
14.972283422158561

> <JCHEM_PKA_STRONGEST_ACIDIC>
10.41543993707953

> <JCHEM_PKA_STRONGEST_BASIC>
9.63102377249204

> <JCHEM_POLAR_SURFACE_AREA>
62.16000000000001

> <JCHEM_REFRACTIVITY>
118.36860000000001

> <JCHEM_ROTATABLE_BOND_COUNT>
4

> <JCHEM_RULE_OF_FIVE>
1

> <ALOGPS_SOLUBILITY>
1.04e-01 g/l

> <JCHEM_TRADITIONAL_IUPAC>
diprenorphine

> <JCHEM_VEBER_RULE>
0

> <DRUGBANK_ID>
DB01548

> <DRUG_GROUPS>
illicit; vet_approved

> <GENERIC_NAME>
Diprenorphine

> <SYNONYMS>
Diprenorfin

> <SALTS>
Diprenorphine hydrochloride

$$$$

  Mrv0541 02231215332D          

 17 19  0  0  0  0            999 V2000
    4.0753    0.0355    0.0000 N   0  0  0  0  0  0  0  0  0  0  0  0
    3.3001   -0.2467    0.0000 C   0  0  0  0  0  0  0  0  0  0  0  0
    4.0145   -0.6592    0.0000 C   0  0  0  0  0  0  0  0  0  0  0  0
    2.5856   -0.6592    0.0000 C   0  0  0  0  0  0  0  0  0  0  0  0
    4.0145   -1.4842    0.0000 C   0  0  0  0  0  0  0  0  0  0  0  0
    2.5856   -1.4842    0.0000 C   0  0  0  0  0  0  0  0  0  0  0  0
    4.7593   -0.4259    0.0000 C   0  0  0  0  0  0  0  0  0  0  0  0
    4.3027    0.8285    0.0000 C   0  0  0  0  0  0  0  0  0  0  0  0
    3.3001   -1.8967    0.0000 C   0  0  0  0  0  0  0  0  0  0  0  0
    2.8876    0.4678    0.0000 C   0  0  0  0  0  0  0  0  0  0  0  0
    5.4094    0.0821    0.0000 C   0  0  0  0  0  0  0  0  0  0  0  0
    5.1272    0.8573    0.0000 C   0  0  0  0  0  0  0  0  0  0  0  0
    2.0625    0.4678    0.0000 C   0  0  0  0  0  0  0  0  0  0  0  0
    3.3001    1.1823    0.0000 C   0  0  0  0  0  0  0  0  0  0  0  0
    1.6500    1.1823    0.0000 C   0  0  0  0  0  0  0  0  0  0  0  0
    2.8876    1.8967    0.0000 C   0  0  0  0  0  0  0  0  0  0  0  0
    2.0625    1.8967    0.0000 C   0  0  0  0  0  0  0  0  0  0  0  0
  1  2  1  0  0  0  0
  1  7  1  0  0  0  0
  1  8  1  0  0  0  0
  2  3  1  0  0  0  0
  2  4  1  0  0  0  0
  2 10  1  0  0  0  0
  3  5  1  0  0  0  0
  4  6  1  0  0  0  0
  5  9  1  0  0  0  0
  6  9  1  0  0  0  0
  7 11  1  0  0  0  0
  8 12  1  0  0  0  0
 10 13  2  0  0  0  0
 10 14  1  0  0  0  0
 11 12  1  0  0  0  0
 13 15  1  0  0  0  0
 14 16  2  0  0  0  0
 15 17  2  0  0  0  0
 16 17  1  0  0  0  0
M  END
> <DATABASE_ID>
DB01549

> <DATABASE_NAME>
drugbank

> <SMILES>
C1CCN(C1)C1(CCCCC1)C1=CC=CC=C1

> <INCHI_IDENTIFIER>
InChI=1S/C16H23N/c1-3-9-15(10-4-1)16(11-5-2-6-12-16)17-13-7-8-14-17/h1,3-4,9-10H,2,5-8,11-14H2

> <INCHI_KEY>
FYOWWXMGDATDQY-UHFFFAOYSA-N

> <FORMULA>
C16H23N

> <MOLECULAR_WEIGHT>
229.3605

> <EXACT_MASS>
229.183049741

> <JCHEM_ACCEPTOR_COUNT>
1

> <JCHEM_AVERAGE_POLARIZABILITY>
27.688074340495053

> <JCHEM_BIOAVAILABILITY>
1

> <JCHEM_DONOR_COUNT>
0

> <JCHEM_FORMAL_CHARGE>
0

> <JCHEM_GHOSE_FILTER>
1

> <JCHEM_IUPAC>
1-(1-phenylcyclohexyl)pyrrolidine

> <ALOGPS_LOGP>
4.54

> <JCHEM_LOGP>
4.043479294999999

> <ALOGPS_LOGS>
-3.98

> <JCHEM_MDDR_LIKE_RULE>
0

> <JCHEM_NUMBER_OF_RINGS>
3

> <JCHEM_PHYSIOLOGICAL_CHARGE>
1

> <JCHEM_PKA_STRONGEST_BASIC>
10.78191575391271

> <JCHEM_POLAR_SURFACE_AREA>
3.24

> <JCHEM_REFRACTIVITY>
73.04550000000002

> <JCHEM_ROTATABLE_BOND_COUNT>
2

> <JCHEM_RULE_OF_FIVE>
1

> <ALOGPS_SOLUBILITY>
2.39e-02 g/l

> <JCHEM_TRADITIONAL_IUPAC>
rolicyclidine

> <JCHEM_VEBER_RULE>
1

> <DRUGBANK_ID>
DB01549

> <DRUG_GROUPS>
experimental; illicit

> <GENERIC_NAME>
Rolicyclidine

> <SYNONYMS>
1-(1-phenylcyclohexyl)pyrrolidine; PCPy; Roliciclidina; Rolicyclidine; Rolicyclidinum

$$$$
1550
  Mrv0541 02231215332D          

 14 14  0  0  1  0            999 V2000
    3.0788    0.8249    0.0000 N   0  0  0  0  0  0  0  0  0  0  0  0
    5.2219    2.8873    0.0000 N   0  0  0  0  0  0  0  0  0  0  0  0
    3.0788    0.0000    0.0000 C   0  0  0  0  0  0  0  0  0  0  0  0
    2.3643   -0.4125    0.0000 C   0  0  0  0  0  0  0  0  0  0  0  0
    2.3643   -1.2374    0.0000 C   0  0  0  0  0  0  0  0  0  0  0  0
    3.7932   -0.4125    0.0000 C   0  0  0  0  0  0  0  0  0  0  0  0
    3.7932    1.2374    0.0000 C   0  0  0  0  0  0  0  0  0  0  0  0
    3.0788   -1.6498    0.0000 C   0  0  0  0  0  0  0  0  0  0  0  0
    1.6498   -1.6498    0.0000 C   0  0  0  0  0  0  0  0  0  0  0  0
    3.7932    2.0623    0.0000 C   0  0  0  0  0  0  0  0  0  0  0  0
    3.0788   -2.4749    0.0000 C   0  0  0  0  0  0  0  0  0  0  0  0
    1.6498   -2.4749    0.0000 C   0  0  0  0  0  0  0  0  0  0  0  0
    2.3643   -2.8873    0.0000 C   0  0  0  0  0  0  0  0  0  0  0  0
    4.5076    2.4749    0.0000 C   0  0  0  0  0  0  0  0  0  0  0  0
  1  3  1  0  0  0  0
  1  7  1  0  0  0  0
  2 14  3  0  0  0  0
  3  4  1  0  0  0  0
  3  6  1  0  0  0  0
  4  5  1  0  0  0  0
  5  8  2  0  0  0  0
  5  9  1  0  0  0  0
  7 10  1  0  0  0  0
  8 11  1  0  0  0  0
  9 12  2  0  0  0  0
 10 14  1  0  0  0  0
 11 13  2  0  0  0  0
 12 13  1  0  0  0  0
M  END
> <DATABASE_ID>
DB01550

> <DATABASE_NAME>
drugbank

> <SMILES>
CC(CC1=CC=CC=C1)NCCC#N

> <INCHI_IDENTIFIER>
InChI=1S/C12H16N2/c1-11(14-9-5-8-13)10-12-6-3-2-4-7-12/h2-4,6-7,11,14H,5,9-10H2,1H3

> <INCHI_KEY>
IQUFSXIQAFPIMR-UHFFFAOYSA-N

> <FORMULA>
C12H16N2

> <MOLECULAR_WEIGHT>
188.2688

> <EXACT_MASS>
188.131348522

> <JCHEM_ACCEPTOR_COUNT>
2

> <JCHEM_AVERAGE_POLARIZABILITY>
22.036433201168098

> <JCHEM_BIOAVAILABILITY>
1

> <JCHEM_DONOR_COUNT>
1

> <JCHEM_FORMAL_CHARGE>
0

> <JCHEM_GHOSE_FILTER>
1

> <JCHEM_IUPAC>
3-[(1-phenylpropan-2-yl)amino]propanenitrile

> <ALOGPS_LOGP>
2.14

> <JCHEM_LOGP>
2.0097757866666663

> <ALOGPS_LOGS>
-3.01

> <JCHEM_MDDR_LIKE_RULE>
0

> <JCHEM_NUMBER_OF_RINGS>
1

> <JCHEM_PHYSIOLOGICAL_CHARGE>
1

> <JCHEM_PKA_STRONGEST_BASIC>
7.881537675753346

> <JCHEM_POLAR_SURFACE_AREA>
35.82

> <JCHEM_REFRACTIVITY>
58.24310000000002

> <JCHEM_ROTATABLE_BOND_COUNT>
5

> <JCHEM_RULE_OF_FIVE>
1

> <ALOGPS_SOLUBILITY>
1.84e-01 g/l

> <JCHEM_TRADITIONAL_IUPAC>
fenproporex

> <JCHEM_VEBER_RULE>
1

> <DRUGBANK_ID>
DB01550

> <DRUG_GROUPS>
experimental; illicit; withdrawn

> <GENERIC_NAME>
Fenproporex

> <SYNONYMS>
Femproporex; Fenproporex; Fenproporexum

> <INTERNATIONAL_BRANDS>
Desobesi-M; Feprorex; Lipenan; Salcal

$$$$

  Mrv1909 03062000252D          

 24 28  0  0  0  0            999 V2000
    0.8545   -0.6643    0.0000 C   0  0  1  0  0  0  0  0  0  0  0  0
    0.0332   -0.6643    0.0000 C   0  0  0  0  0  0  0  0  0  0  0  0
   -0.3757   -1.3620    0.0000 C   0  0  0  0  0  0  0  0  0  0  0  0
    1.2636   -1.3842    0.0000 C   0  0  1  0  0  0  0  0  0  0  0  0
    1.2796    0.0460    0.0000 C   0  0  2  0  0  0  0  0  0  0  0  0
    0.4392   -1.8536    0.0000 O   0  0  0  0  0  0  0  0  0  0  0  0
    0.8545    0.7404    0.0000 C   0  0  1  0  0  0  0  0  0  0  0  0
   -0.3757    0.0492    0.0000 C   0  0  0  0  0  0  0  0  0  0  0  0
    0.0332    0.7689    0.0000 C   0  0  0  0  0  0  0  0  0  0  0  0
    1.2509    1.3842    0.0000 N   0  0  0  0  0  0  0  0  0  0  0  0
    1.4413   -0.6643    0.0000 C   0  0  0  0  0  0  0  0  0  0  0  0
    2.1072    0.0492    0.0000 C   0  0  0  0  0  0  0  0  0  0  0  0
   -1.1940   -1.3620    0.0000 C   0  0  0  0  0  0  0  0  0  0  0  0
    2.0977   -1.3905    0.0000 C   0  0  2  0  0  0  0  0  0  0  0  0
    2.3991    1.3842    0.0000 C   0  0  0  0  0  0  0  0  0  0  0  0
   -1.1875    0.0492    0.0000 C   0  0  0  0  0  0  0  0  0  0  0  0
    2.5162   -0.6738    0.0000 C   0  0  0  0  0  0  0  0  0  0  0  0
   -1.5967   -0.6516    0.0000 C   0  0  0  0  0  0  0  0  0  0  0  0
    2.5416   -2.1737    0.0000 O   0  0  0  0  0  0  0  0  0  0  0  0
   -1.6442   -2.1390    0.0000 O   0  0  0  0  0  0  0  0  0  0  0  0
    1.2478    2.2816    0.0000 C   0  0  0  0  0  0  0  0  0  0  0  0
   -2.5416   -2.1390    0.0000 C   0  0  0  0  0  0  0  0  0  0  0  0
    0.3821    0.0524    0.0000 H   0  0  0  0  0  0  0  0  0  0  0  0
    1.2606   -2.2816    0.0000 H   0  0  0  0  0  0  0  0  0  0  0  0
  2  1  1  0  0  0  0
  3  2  2  0  0  0  0
  4  1  1  0  0  0  0
  5  1  1  0  0  0  0
  6  4  1  0  0  0  0
  7  5  1  0  0  0  0
  8  2  1  0  0  0  0
  9  8  1  0  0  0  0
 10 15  1  0  0  0  0
  1 11  1  1  0  0  0
 12  5  1  0  0  0  0
 13  3  1  0  0  0  0
 14  4  1  0  0  0  0
 15 11  1  0  0  0  0
 16  8  2  0  0  0  0
 17 12  1  0  0  0  0
 18 13  2  0  0  0  0
 14 19  1  6  0  0  0
 20 13  1  0  0  0  0
 21 10  1  0  0  0  0
 22 20  1  0  0  0  0
  5 23  1  1  0  0  0
  4 24  1  1  0  0  0
  6  3  1  0  0  0  0
  7  9  1  0  0  0  0
  7 10  1  1  0  0  0
 17 14  1  0  0  0  0
 16 18  1  0  0  0  0
M  END
> <DATABASE_ID>
DB01551

> <DATABASE_NAME>
drugbank

> <SMILES>
[H][C@@]12OC3=C4C(C[C@H]5N(C)CC[C@@]14[C@@]5([H])CC[C@@H]2O)=CC=C3OC

> <INCHI_IDENTIFIER>
InChI=1S/C18H23NO3/c1-19-8-7-18-11-4-5-13(20)17(18)22-16-14(21-2)6-3-10(15(16)18)9-12(11)19/h3,6,11-13,17,20H,4-5,7-9H2,1-2H3/t11-,12+,13-,17-,18-/m0/s1

> <INCHI_KEY>
RBOXVHNMENFORY-DNJOTXNNSA-N

> <FORMULA>
C18H23NO3

> <MOLECULAR_WEIGHT>
301.3801

> <EXACT_MASS>
301.167793607

> <JCHEM_ACCEPTOR_COUNT>
4

> <JCHEM_ATOM_COUNT>
45

> <JCHEM_AVERAGE_NEUTRAL_MICROSPECIES_CHARGE>
1.000683829621071

> <JCHEM_AVERAGE_POLARIZABILITY>
32.798339794132914

> <JCHEM_BIOAVAILABILITY>
1

> <JCHEM_DONOR_COUNT>
1

> <JCHEM_FORMAL_CHARGE>
0

> <JCHEM_GHOSE_FILTER>
1

> <JCHEM_IUPAC>
(1S,5R,13R,14S,17R)-10-methoxy-4-methyl-12-oxa-4-azapentacyclo[9.6.1.0^{1,13}.0^{5,17}.0^{7,18}]octadeca-7,9,11(18)-trien-14-ol

> <ALOGPS_LOGP>
1.58

> <JCHEM_LOGP>
1.5489654796666665

> <ALOGPS_LOGS>
-2.10

> <JCHEM_MDDR_LIKE_RULE>
0

> <JCHEM_NEUTRAL_CHARGE>
1

> <JCHEM_NUMBER_OF_RINGS>
5

> <JCHEM_PHYSIOLOGICAL_CHARGE>
1

> <JCHEM_PKA_STRONGEST_ACIDIC>
14.151551128315674

> <JCHEM_PKA_STRONGEST_BASIC>
9.331082819397679

> <JCHEM_POLAR_SURFACE_AREA>
41.93000000000001

> <JCHEM_REFRACTIVITY>
83.6421

> <JCHEM_ROTATABLE_BOND_COUNT>
1

> <JCHEM_RULE_OF_FIVE>
1

> <ALOGPS_SOLUBILITY>
2.38e+00 g/l

> <JCHEM_TRADITIONAL_IUPAC>
(1S,5R,13R,14S,17R)-10-methoxy-4-methyl-12-oxa-4-azapentacyclo[9.6.1.0^{1,13}.0^{5,17}.0^{7,18}]octadeca-7,9,11(18)-trien-14-ol

> <JCHEM_VEBER_RULE>
0

> <DRUGBANK_ID>
DB01551

> <DRUG_GROUPS>
approved; illicit

> <GENERIC_NAME>
Dihydrocodeine

> <SYNONYMS>
DHC; Dihydrocodeine

> <PRODUCTS>
Acetaminophen, Caffeine and Dihydrocodeine Bitartrate; Acetaminophen, Caffeine, Dihydrocodeine Bitartrate; Aspirin, Caffeine, and Dihydrocodeine Bitartrate; Centussin Dhc; Coldcough; Coldcough PD; DiHydro CP; Dihydrocodeine BPM Phenyleph HCl; Dihydrocodeine Bitartrate, Acetaminophen and Caffeine; Dihydrocodeine/ BPM/ Phenyleph HCl; Donatuss DC; Duohist DH; Dvorah; EndaCof DH; J-cof Dhc; J-max Dhc; Panlor; Panlor SS; Poly Hist Dhc; Poly-tussin EX; Synalgos; Trezix; Tusscough DHC; WellTuss EXP; dihydrocodeine bitartrate and aspirin and caffeine DC

> <INTERNATIONAL_BRANDS>
Codidol; Contugesic; Dehace; DF-118 Forte; Dicogesic; Hydrocodin; Remedacen

> <SALTS>
Dihydrocodeine bitartrate; Dihydrocodeine hydrochloride; Dihydrocodeine hydroiodide; Dihydrocodeine phosphate; Dihydrocodeine thiocyanate

$$$$

  Mrv1652302241717342D          

 20 21  0  0  0  0            999 V2000
    2.2835   -0.2676    0.0000 C   0  0  0  0  0  0  0  0  0  0  0  0
    1.5690    0.1448    0.0000 C   0  0  0  0  0  0  0  0  0  0  0  0
    0.8545   -0.2676    0.0000 C   0  0  2  0  0  0  0  0  0  0  0  0
    0.8545   -1.0926    0.0000 C   0  0  0  0  0  0  0  0  0  0  0  0
    0.1401   -1.5051    0.0000 N   0  0  0  0  0  0  0  0  0  0  0  0
    0.1401   -2.3301    0.0000 C   0  0  0  0  0  0  0  0  0  0  0  0
   -0.5743   -1.0926    0.0000 C   0  0  0  0  0  0  0  0  0  0  0  0
   -0.5743   -0.2676    0.0000 C   0  0  0  0  0  0  0  0  0  0  0  0
    0.1401    0.1448    0.0000 C   0  0  1  0  0  0  0  0  0  0  0  0
   -0.2472    0.8732    0.0000 O   0  0  0  0  0  0  0  0  0  0  0  0
   -1.0717    0.9020    0.0000 C   0  0  0  0  0  0  0  0  0  0  0  0
   -1.5088    0.2024    0.0000 O   0  0  0  0  0  0  0  0  0  0  0  0
   -1.4590    1.6305    0.0000 C   0  0  0  0  0  0  0  0  0  0  0  0
   -2.2835    1.6593    0.0000 C   0  0  0  0  0  0  0  0  0  0  0  0
    0.5274    0.8732    0.0000 C   0  0  0  0  0  0  0  0  0  0  0  0
    0.0902    1.5729    0.0000 C   0  0  0  0  0  0  0  0  0  0  0  0
    0.4775    2.3013    0.0000 C   0  0  0  0  0  0  0  0  0  0  0  0
    1.3020    2.3301    0.0000 C   0  0  0  0  0  0  0  0  0  0  0  0
    1.7392    1.6305    0.0000 C   0  0  0  0  0  0  0  0  0  0  0  0
    1.3519    0.9020    0.0000 C   0  0  0  0  0  0  0  0  0  0  0  0
  1  2  1  0  0  0  0
  3  2  1  6  0  0  0
  3  4  1  0  0  0  0
  4  5  1  0  0  0  0
  5  6  1  0  0  0  0
  5  7  1  0  0  0  0
  7  8  1  0  0  0  0
  8  9  1  0  0  0  0
  3  9  1  0  0  0  0
  9 10  1  1  0  0  0
 10 11  1  0  0  0  0
 11 12  2  0  0  0  0
 11 13  1  0  0  0  0
 13 14  1  0  0  0  0
  9 15  1  6  0  0  0
 15 16  2  0  0  0  0
 16 17  1  0  0  0  0
 17 18  2  0  0  0  0
 18 19  1  0  0  0  0
 19 20  2  0  0  0  0
 15 20  1  0  0  0  0
M  END
> <DATABASE_ID>
DB01552

> <DATABASE_NAME>
drugbank

> <SMILES>
CC[C@@H]1CN(C)CC[C@]1(OC(=O)CC)C1=CC=CC=C1

> <INCHI_IDENTIFIER>
InChI=1S/C17H25NO2/c1-4-14-13-18(3)12-11-17(14,20-16(19)5-2)15-9-7-6-8-10-15/h6-10,14H,4-5,11-13H2,1-3H3/t14-,17-/m1/s1

> <INCHI_KEY>
ODEGQXRCQDVXSJ-RHSMWYFYSA-N

> <FORMULA>
C17H25NO2

> <MOLECULAR_WEIGHT>
275.392

> <EXACT_MASS>
275.188529049

> <JCHEM_ACCEPTOR_COUNT>
2

> <JCHEM_ATOM_COUNT>
45

> <JCHEM_AVERAGE_POLARIZABILITY>
31.625362974119373

> <JCHEM_BIOAVAILABILITY>
1

> <JCHEM_DONOR_COUNT>
0

> <JCHEM_FORMAL_CHARGE>
0

> <JCHEM_GHOSE_FILTER>
1

> <JCHEM_IUPAC>
(3R,4R)-3-ethyl-1-methyl-4-phenylpiperidin-4-yl propanoate

> <ALOGPS_LOGP>
3.46

> <JCHEM_LOGP>
3.2220243709999985

> <ALOGPS_LOGS>
-3.12

> <JCHEM_MDDR_LIKE_RULE>
0

> <JCHEM_NUMBER_OF_RINGS>
2

> <JCHEM_PHYSIOLOGICAL_CHARGE>
1

> <JCHEM_PKA_STRONGEST_BASIC>
9.104905948490138

> <JCHEM_POLAR_SURFACE_AREA>
29.54

> <JCHEM_REFRACTIVITY>
81.01040000000002

> <JCHEM_ROTATABLE_BOND_COUNT>
5

> <JCHEM_RULE_OF_FIVE>
1

> <ALOGPS_SOLUBILITY>
2.11e-01 g/l

> <JCHEM_TRADITIONAL_IUPAC>
(3R,4R)-3-ethyl-1-methyl-4-phenylpiperidin-4-yl propanoate

> <JCHEM_VEBER_RULE>
1

> <DRUGBANK_ID>
DB01552

> <DRUG_GROUPS>
experimental; illicit

> <GENERIC_NAME>
Betameprodine

> <SYNONYMS>
beta-1-Methyl-3-ethyl-4-phenyl-4-propionoxy-piperidin; beta-3-Ethyl-1-methyl-4-phenyl-4-propionoxypiperidine; beta-meprodine; Betameprodina; Betameprodinum

$$$$

  Mrv1652306131721572D          

 20 23  0  0  1  0            999 V2000
    4.3228    1.7357    0.0000 C   0  0  0  0  0  0  0  0  0  0  0  0
    3.9629    0.9934    0.0000 C   0  0  2  0  0  0  0  0  0  0  0  0
    3.4311    1.6241    0.0000 C   0  0  0  0  0  0  0  0  0  0  0  0
    2.6190    1.4789    0.0000 C   0  0  0  0  0  0  0  0  0  0  0  0
    2.3387    0.7029    0.0000 C   0  0  1  0  0  0  0  0  0  0  0  0
    2.8705    0.0722    0.0000 C   0  0  2  0  0  0  0  0  0  0  0  0
    3.6826    0.2174    0.0000 C   0  0  2  0  0  0  0  0  0  0  0  0
    4.3340   -0.2889    0.0000 C   0  0  0  0  0  0  0  0  0  0  0  0
    5.0168    0.1741    0.0000 C   0  0  0  0  0  0  0  0  0  0  0  0
    4.7875    0.9666    0.0000 C   0  0  2  0  0  0  0  0  0  0  0  0
    5.2939    1.6179    0.0000 O   0  0  0  0  0  0  0  0  0  0  0  0
    2.5902   -0.7037    0.0000 C   0  0  0  0  0  0  0  0  0  0  0  0
    1.7781   -0.8489    0.0000 C   0  0  0  0  0  0  0  0  0  0  0  0
    1.2463   -0.2182    0.0000 C   0  0  0  0  0  0  0  0  0  0  0  0
    0.4342   -0.3634    0.0000 C   0  0  0  0  0  0  0  0  0  0  0  0
   -0.0976    0.2673    0.0000 C   0  0  2  0  0  0  0  0  0  0  0  0
    0.1827    1.0432    0.0000 C   0  0  0  0  0  0  0  0  0  0  0  0
    0.9948    1.1884    0.0000 C   0  0  0  0  0  0  0  0  0  0  0  0
    1.5266    0.5577    0.0000 C   0  0  2  0  0  0  0  0  0  0  0  0
   -0.9098    0.1221    0.0000 O   0  0  0  0  0  0  0  0  0  0  0  0
  2  1  1  1  0  0  0
  2  3  1  0  0  0  0
  3  4  1  0  0  0  0
  5  4  1  1  0  0  0
  5  6  1  0  0  0  0
  6  7  1  0  0  0  0
  2  7  1  0  0  0  0
  7  8  1  1  0  0  0
  8  9  1  0  0  0  0
  9 10  1  0  0  0  0
  2 10  1  0  0  0  0
 10 11  1  1  0  0  0
  6 12  1  6  0  0  0
 12 13  1  0  0  0  0
 13 14  1  0  0  0  0
 14 15  2  0  0  0  0
 15 16  1  0  0  0  0
 16 17  1  0  0  0  0
 17 18  1  0  0  0  0
 19 18  1  6  0  0  0
  5 19  1  0  0  0  0
 14 19  1  0  0  0  0
 16 20  1  1  0  0  0
M  END
> <DATABASE_ID>
DB01554

> <DATABASE_NAME>
drugbank

> <SMILES>
C[C@]12CC[C@H]3[C@@H](CCC4=C[C@@H](O)CC[C@H]34)[C@@H]1CC[C@@H]2O

> <INCHI_IDENTIFIER>
InChI=1S/C18H28O2/c1-18-9-8-14-13-5-3-12(19)10-11(13)2-4-15(14)16(18)6-7-17(18)20/h10,12-17,19-20H,2-9H2,1H3/t12-,13-,14+,15+,16-,17-,18-/m0/s1

> <INCHI_KEY>
CMXKUJNZWYTFJN-XFUVECHXSA-N

> <FORMULA>
C18H28O2

> <MOLECULAR_WEIGHT>
276.42

> <EXACT_MASS>
276.208930142

> <JCHEM_ACCEPTOR_COUNT>
2

> <JCHEM_ATOM_COUNT>
48

> <JCHEM_AVERAGE_POLARIZABILITY>
33.297181011031164

> <JCHEM_BIOAVAILABILITY>
1

> <JCHEM_DONOR_COUNT>
2

> <JCHEM_FORMAL_CHARGE>
0

> <JCHEM_GHOSE_FILTER>
1

> <JCHEM_IUPAC>
(1S,2R,5S,10R,11S,14S,15S)-15-methyltetracyclo[8.7.0.0^{2,7}.0^{11,15}]heptadec-6-ene-5,14-diol

> <ALOGPS_LOGP>
2.61

> <JCHEM_LOGP>
2.654037689666666

> <ALOGPS_LOGS>
-3.69

> <JCHEM_MDDR_LIKE_RULE>
0

> <JCHEM_NUMBER_OF_RINGS>
4

> <JCHEM_PHYSIOLOGICAL_CHARGE>
0

> <JCHEM_PKA>
19.37770530193098

> <JCHEM_PKA_STRONGEST_ACIDIC>
17.524960806331435

> <JCHEM_PKA_STRONGEST_BASIC>
-0.8215065576130297

> <JCHEM_POLAR_SURFACE_AREA>
40.46

> <JCHEM_REFRACTIVITY>
80.8521

> <JCHEM_ROTATABLE_BOND_COUNT>
0

> <JCHEM_RULE_OF_FIVE>
1

> <ALOGPS_SOLUBILITY>
5.66e-02 g/l

> <JCHEM_TRADITIONAL_IUPAC>
(1S,2R,5S,10R,11S,14S,15S)-15-methyltetracyclo[8.7.0.0^{2,7}.0^{11,15}]heptadec-6-ene-5,14-diol

> <JCHEM_VEBER_RULE>
0

> <DRUGBANK_ID>
DB01554

> <DRUG_GROUPS>
experimental; illicit

> <GENERIC_NAME>
Bolandiol

> <SYNONYMS>
19-nor-4-androstenediol; 3beta,17beta-dihydroxyestr-4-ene; 4-norendiol

$$$$
1555
  Mrv0541 02231215332D          

 26 27  0  0  1  0            999 V2000
    5.8950   -0.7144    0.0000 O   0  0  0  0  0  0  0  0  0  0  0  0
    7.1325    0.0000    0.0000 O   0  0  0  0  0  0  0  0  0  0  0  0
    2.4253   -0.2482    0.0000 N   0  0  0  0  0  0  0  0  0  0  0  0
    4.6575    0.0000    0.0000 C   0  0  0  0  0  0  0  0  0  0  0  0
    3.8325    0.0000    0.0000 C   0  0  0  0  0  0  0  0  0  0  0  0
    5.4825    0.0000    0.0000 C   0  0  1  0  0  0  0  0  0  0  0  0
    3.0572    0.2822    0.0000 C   0  0  1  0  0  0  0  0  0  0  0  0
    4.6575    0.8250    0.0000 C   0  0  0  0  0  0  0  0  0  0  0  0
    4.6575   -0.8250    0.0000 C   0  0  0  0  0  0  0  0  0  0  0  0
    5.8950    0.7144    0.0000 C   0  0  0  0  0  0  0  0  0  0  0  0
    2.9140    1.0946    0.0000 C   0  0  0  0  0  0  0  0  0  0  0  0
    3.9430    1.2375    0.0000 C   0  0  0  0  0  0  0  0  0  0  0  0
    5.3720   -1.2375    0.0000 C   0  0  0  0  0  0  0  0  0  0  0  0
    5.3720    1.2375    0.0000 C   0  0  0  0  0  0  0  0  0  0  0  0
    3.9430   -1.2375    0.0000 C   0  0  0  0  0  0  0  0  0  0  0  0
    6.7200    0.7144    0.0000 C   0  0  0  0  0  0  0  0  0  0  0  0
    1.6500    0.0341    0.0000 C   0  0  0  0  0  0  0  0  0  0  0  0
    2.5685   -1.0605    0.0000 C   0  0  0  0  0  0  0  0  0  0  0  0
    3.9430    2.0625    0.0000 C   0  0  0  0  0  0  0  0  0  0  0  0
    5.3720   -2.0625    0.0000 C   0  0  0  0  0  0  0  0  0  0  0  0
    5.3720    2.0625    0.0000 C   0  0  0  0  0  0  0  0  0  0  0  0
    3.9430   -2.0625    0.0000 C   0  0  0  0  0  0  0  0  0  0  0  0
    6.7200   -0.7144    0.0000 C   0  0  0  0  0  0  0  0  0  0  0  0
    4.6575    2.4750    0.0000 C   0  0  0  0  0  0  0  0  0  0  0  0
    4.6575   -2.4750    0.0000 C   0  0  0  0  0  0  0  0  0  0  0  0
    7.1325   -1.4290    0.0000 C   0  0  0  0  0  0  0  0  0  0  0  0
  6  1  1  1  0  0  0
  1 23  1  0  0  0  0
  2 23  2  0  0  0  0
  7  3  1  6  0  0  0
  3 17  1  0  0  0  0
  3 18  1  0  0  0  0
  4  5  1  0  0  0  0
  4  6  1  0  0  0  0
  4  8  1  0  0  0  0
  4  9  1  0  0  0  0
  5  7  1  0  0  0  0
  6 10  1  0  0  0  0
  7 11  1  0  0  0  0
  8 12  2  0  0  0  0
  8 14  1  0  0  0  0
  9 13  2  0  0  0  0
  9 15  1  0  0  0  0
 10 16  1  0  0  0  0
 12 19  1  0  0  0  0
 13 20  1  0  0  0  0
 14 21  2  0  0  0  0
 15 22  2  0  0  0  0
 19 24  2  0  0  0  0
 20 25  2  0  0  0  0
 21 24  1  0  0  0  0
 22 25  1  0  0  0  0
 23 26  1  0  0  0  0
M  END
> <DATABASE_ID>
DB01555

> <DATABASE_NAME>
drugbank

> <SMILES>
CC[C@@H](OC(C)=O)C(C[C@@H](C)N(C)C)(C1=CC=CC=C1)C1=CC=CC=C1

> <INCHI_IDENTIFIER>
InChI=1S/C23H31NO2/c1-6-22(26-19(3)25)23(17-18(2)24(4)5,20-13-9-7-10-14-20)21-15-11-8-12-16-21/h7-16,18,22H,6,17H2,1-5H3/t18-,22-/m1/s1

> <INCHI_KEY>
XBMIVRRWGCYBTQ-XMSQKQJNSA-N

> <FORMULA>
C23H31NO2

> <MOLECULAR_WEIGHT>
353.4977

> <EXACT_MASS>
353.235479241

> <JCHEM_ACCEPTOR_COUNT>
2

> <JCHEM_AVERAGE_POLARIZABILITY>
40.82408278818341

> <JCHEM_BIOAVAILABILITY>
1

> <JCHEM_DONOR_COUNT>
0

> <JCHEM_FORMAL_CHARGE>
0

> <JCHEM_GHOSE_FILTER>
1

> <JCHEM_IUPAC>
(3R,6R)-6-(dimethylamino)-4,4-diphenylheptan-3-yl acetate

> <ALOGPS_LOGP>
4.78

> <JCHEM_LOGP>
4.884769339999999

> <ALOGPS_LOGS>
-5.30

> <JCHEM_MDDR_LIKE_RULE>
0

> <JCHEM_NUMBER_OF_RINGS>
2

> <JCHEM_PHYSIOLOGICAL_CHARGE>
1

> <JCHEM_PKA_STRONGEST_BASIC>
9.869489670661055

> <JCHEM_POLAR_SURFACE_AREA>
29.54

> <JCHEM_REFRACTIVITY>
117.85760000000002

> <JCHEM_ROTATABLE_BOND_COUNT>
9

> <JCHEM_RULE_OF_FIVE>
1

> <ALOGPS_SOLUBILITY>
1.79e-03 g/l

> <JCHEM_TRADITIONAL_IUPAC>
alphacetylmethadol

> <JCHEM_VEBER_RULE>
1

> <DRUGBANK_ID>
DB01555

> <DRUG_GROUPS>
experimental; illicit

> <GENERIC_NAME>
Alphacetylmethadol

$$$$
1556
  Mrv0541 02231215332D          

 12 12  0  0  0  0            999 V2000
    2.3645   -2.3183    0.0000 Cl  0  0  0  0  0  0  0  0  0  0  0  0
    3.7935    1.8068    0.0000 N   0  0  0  0  0  0  0  0  0  0  0  0
    3.0791    1.3943    0.0000 C   0  0  0  0  0  0  0  0  0  0  0  0
    2.3645    0.9818    0.0000 C   0  0  0  0  0  0  0  0  0  0  0  0
    2.6665    2.1087    0.0000 C   0  0  0  0  0  0  0  0  0  0  0  0
    3.4916    0.6798    0.0000 C   0  0  0  0  0  0  0  0  0  0  0  0
    2.3645    0.1568    0.0000 C   0  0  0  0  0  0  0  0  0  0  0  0
    3.0791   -0.2558    0.0000 C   0  0  0  0  0  0  0  0  0  0  0  0
    1.6500   -0.2558    0.0000 C   0  0  0  0  0  0  0  0  0  0  0  0
    3.0791   -1.0808    0.0000 C   0  0  0  0  0  0  0  0  0  0  0  0
    1.6500   -1.0808    0.0000 C   0  0  0  0  0  0  0  0  0  0  0  0
    2.3645   -1.4933    0.0000 C   0  0  0  0  0  0  0  0  0  0  0  0
  1 12  1  0  0  0  0
  2  3  1  0  0  0  0
  3  4  1  0  0  0  0
  3  5  1  0  0  0  0
  3  6  1  0  0  0  0
  4  7  1  0  0  0  0
  7  8  2  0  0  0  0
  7  9  1  0  0  0  0
  8 10  1  0  0  0  0
  9 11  2  0  0  0  0
 10 12  2  0  0  0  0
 11 12  1  0  0  0  0
M  END
> <DATABASE_ID>
DB01556

> <DATABASE_NAME>
drugbank

> <SMILES>
CC(C)(N)CC1=CC=C(Cl)C=C1

> <INCHI_IDENTIFIER>
InChI=1S/C10H14ClN/c1-10(2,12)7-8-3-5-9(11)6-4-8/h3-6H,7,12H2,1-2H3

> <INCHI_KEY>
ZCKAMNXUHHNZLN-UHFFFAOYSA-N

> <FORMULA>
C10H14ClN

> <MOLECULAR_WEIGHT>
183.678

> <EXACT_MASS>
183.08147716

> <JCHEM_ACCEPTOR_COUNT>
1

> <JCHEM_AVERAGE_POLARIZABILITY>
20.19453270878085

> <JCHEM_BIOAVAILABILITY>
1

> <JCHEM_DONOR_COUNT>
1

> <JCHEM_FORMAL_CHARGE>
0

> <JCHEM_GHOSE_FILTER>
1

> <JCHEM_IUPAC>
1-(4-chlorophenyl)-2-methylpropan-2-amine

> <ALOGPS_LOGP>
2.81

> <JCHEM_LOGP>
2.688871826333333

> <ALOGPS_LOGS>
-3.24

> <JCHEM_MDDR_LIKE_RULE>
0

> <JCHEM_NUMBER_OF_RINGS>
1

> <JCHEM_PHYSIOLOGICAL_CHARGE>
1

> <JCHEM_PKA_STRONGEST_BASIC>
10.237050035938482

> <JCHEM_POLAR_SURFACE_AREA>
26.02

> <JCHEM_REFRACTIVITY>
53.14820000000001

> <JCHEM_ROTATABLE_BOND_COUNT>
2

> <JCHEM_RULE_OF_FIVE>
1

> <ALOGPS_SOLUBILITY>
1.05e-01 g/l

> <JCHEM_TRADITIONAL_IUPAC>
chlorphentermine

> <JCHEM_VEBER_RULE>
1

> <DRUGBANK_ID>
DB01556

> <DRUG_GROUPS>
illicit; withdrawn

> <GENERIC_NAME>
Chlorphentermine

> <SYNONYMS>
4-Chloro-a,a-dimethylbenzeneethanamine; 4-Chloro-a,a-dimethylphenethylamine; a,a-Dimethyl-p-chlorophenethylamine; Chlorphenterminum; Clorfentermina

> <INTERNATIONAL_BRANDS>
Apsedon; Desopimon; Lucofen

> <SALTS>
Chlorphentermine hydrochloride

$$$$
1557
  Mrv0541 02231215332D          

 26 28  0  0  1  0            999 V2000
    1.6500    2.2688    0.0000 O   0  0  0  0  0  0  0  0  0  0  0  0
    3.0791   -0.2063    0.0000 N   0  0  0  0  0  0  0  0  0  0  0  0
    3.0791    2.2688    0.0000 N   0  0  0  0  0  0  0  0  0  0  0  0
    3.0791    1.4438    0.0000 C   0  0  0  0  0  0  0  0  0  0  0  0
    2.3645    1.0313    0.0000 C   0  0  0  0  0  0  0  0  0  0  0  0
    3.7935    1.0313    0.0000 C   0  0  0  0  0  0  0  0  0  0  0  0
    2.3645    0.2063    0.0000 C   0  0  0  0  0  0  0  0  0  0  0  0
    3.7935    0.2063    0.0000 C   0  0  0  0  0  0  0  0  0  0  0  0
    3.0791   -1.0313    0.0000 C   0  0  0  0  0  0  0  0  0  0  0  0
    2.3645   -1.4438    0.0000 C   0  0  0  0  0  0  0  0  0  0  0  0
    3.7935   -1.4438    0.0000 C   0  0  0  0  0  0  0  0  0  0  0  0
    3.7935    2.6813    0.0000 C   0  0  0  0  0  0  0  0  0  0  0  0
    2.3645    2.6813    0.0000 C   0  0  0  0  0  0  0  0  0  0  0  0
    2.3645   -2.2688    0.0000 C   0  0  0  0  0  0  0  0  0  0  0  0
    2.3645    3.5063    0.0000 C   0  0  0  0  0  0  0  0  0  0  0  0
    3.7935    3.5063    0.0000 C   0  0  0  0  0  0  0  0  0  0  0  0
    4.5080    2.2688    0.0000 C   0  0  0  0  0  0  0  0  0  0  0  0
    3.0791   -2.6813    0.0000 C   0  0  0  0  0  0  0  0  0  0  0  0
    1.6500   -2.6813    0.0000 C   0  0  0  0  0  0  0  0  0  0  0  0
    1.6500    3.9188    0.0000 C   0  0  0  0  0  0  0  0  0  0  0  0
    4.5080    3.9188    0.0000 C   0  0  0  0  0  0  0  0  0  0  0  0
    5.2224    2.6813    0.0000 C   0  0  0  0  0  0  0  0  0  0  0  0
    3.0791   -3.5063    0.0000 C   0  0  0  0  0  0  0  0  0  0  0  0
    1.6500   -3.5063    0.0000 C   0  0  0  0  0  0  0  0  0  0  0  0
    5.2224    3.5063    0.0000 C   0  0  0  0  0  0  0  0  0  0  0  0
    2.3645   -3.9188    0.0000 C   0  0  0  0  0  0  0  0  0  0  0  0
  1 13  2  0  0  0  0
  2  7  1  0  0  0  0
  2  8  1  0  0  0  0
  2  9  1  0  0  0  0
  3  4  1  0  0  0  0
  3 12  1  0  0  0  0
  3 13  1  0  0  0  0
  4  5  1  0  0  0  0
  4  6  1  0  0  0  0
  5  7  1  0  0  0  0
  6  8  1  0  0  0  0
  9 10  1  0  0  0  0
  9 11  1  0  0  0  0
 10 14  1  0  0  0  0
 12 16  2  0  0  0  0
 12 17  1  0  0  0  0
 13 15  1  0  0  0  0
 14 18  2  0  0  0  0
 14 19  1  0  0  0  0
 15 20  1  0  0  0  0
 16 21  1  0  0  0  0
 17 22  2  0  0  0  0
 18 23  1  0  0  0  0
 19 24  2  0  0  0  0
 21 25  2  0  0  0  0
 22 25  1  0  0  0  0
 23 26  2  0  0  0  0
 24 26  1  0  0  0  0
M  END
> <DATABASE_ID>
DB01557

> <DATABASE_NAME>
drugbank

> <SMILES>
CCC(=O)N(C1CCN(CC1)C(C)CC1=CC=CC=C1)C1=CC=CC=C1

> <INCHI_IDENTIFIER>
InChI=1S/C23H30N2O/c1-3-23(26)25(21-12-8-5-9-13-21)22-14-16-24(17-15-22)19(2)18-20-10-6-4-7-11-20/h4-13,19,22H,3,14-18H2,1-2H3

> <INCHI_KEY>
NGTVDHYUFBKWID-UHFFFAOYSA-N

> <FORMULA>
C23H30N2O

> <MOLECULAR_WEIGHT>
350.4971

> <EXACT_MASS>
350.235813592

> <JCHEM_ACCEPTOR_COUNT>
2

> <JCHEM_AVERAGE_POLARIZABILITY>
41.90506511706627

> <JCHEM_BIOAVAILABILITY>
1

> <JCHEM_DONOR_COUNT>
0

> <JCHEM_FORMAL_CHARGE>
0

> <JCHEM_GHOSE_FILTER>
1

> <JCHEM_IUPAC>
N-phenyl-N-[1-(1-phenylpropan-2-yl)piperidin-4-yl]propanamide

> <ALOGPS_LOGP>
4.49

> <JCHEM_LOGP>
4.232073573

> <ALOGPS_LOGS>
-4.40

> <JCHEM_MDDR_LIKE_RULE>
1

> <JCHEM_NUMBER_OF_RINGS>
3

> <JCHEM_PHYSIOLOGICAL_CHARGE>
1

> <JCHEM_PKA_STRONGEST_BASIC>
9.004906222646257

> <JCHEM_POLAR_SURFACE_AREA>
23.550000000000004

> <JCHEM_REFRACTIVITY>
107.90130000000003

> <JCHEM_ROTATABLE_BOND_COUNT>
6

> <JCHEM_RULE_OF_FIVE>
1

> <ALOGPS_SOLUBILITY>
1.40e-02 g/l

> <JCHEM_TRADITIONAL_IUPAC>
α-methylfentanyl

> <JCHEM_VEBER_RULE>
1

> <DRUGBANK_ID>
DB01557

> <DRUG_GROUPS>
illicit

> <GENERIC_NAME>
α-Methylfentanyl

> <SYNONYMS>
alpha-methylfentanyl

$$$$
1558
  Mrv0541 02231215332D          

 19 21  0  0  0  0            999 V2000
    2.5467   -2.3593    0.0000 Br  0  0  0  0  0  0  0  0  0  0  0  0
    2.3403    2.3593    0.0000 O   0  0  0  0  0  0  0  0  0  0  0  0
    2.1839    0.9709    0.0000 N   0  0  0  0  0  0  0  0  0  0  0  0
    4.0375    0.9709    0.0000 N   0  0  0  0  0  0  0  0  0  0  0  0
    5.2670   -0.0464    0.0000 N   0  0  0  0  0  0  0  0  0  0  0  0
    3.1107   -0.1914    0.0000 C   0  0  0  0  0  0  0  0  0  0  0  0
    2.3674    0.1666    0.0000 C   0  0  0  0  0  0  0  0  0  0  0  0
    3.8540    0.1666    0.0000 C   0  0  0  0  0  0  0  0  0  0  0  0
    3.1881   -1.0473    0.0000 C   0  0  0  0  0  0  0  0  0  0  0  0
    3.5232    1.6159    0.0000 C   0  0  0  0  0  0  0  0  0  0  0  0
    4.4990   -0.3478    0.0000 C   0  0  0  0  0  0  0  0  0  0  0  0
    1.6500   -0.3065    0.0000 C   0  0  0  0  0  0  0  0  0  0  0  0
    2.6982    1.6159    0.0000 C   0  0  0  0  0  0  0  0  0  0  0  0
    2.4818   -1.5367    0.0000 C   0  0  0  0  0  0  0  0  0  0  0  0
    1.7076   -1.1639    0.0000 C   0  0  0  0  0  0  0  0  0  0  0  0
    4.3760   -1.1636    0.0000 C   0  0  0  0  0  0  0  0  0  0  0  0
    5.0210   -1.6780    0.0000 C   0  0  0  0  0  0  0  0  0  0  0  0
    5.9120   -0.5608    0.0000 C   0  0  0  0  0  0  0  0  0  0  0  0
    5.7890   -1.3765    0.0000 C   0  0  0  0  0  0  0  0  0  0  0  0
  1 14  1  0  0  0  0
  2 13  2  0  0  0  0
  3  7  1  0  0  0  0
  3 13  1  0  0  0  0
  4  8  2  0  0  0  0
  4 10  1  0  0  0  0
  5 11  1  0  0  0  0
  5 18  2  0  0  0  0
  6  7  2  0  0  0  0
  6  8  1  0  0  0  0
  6  9  1  0  0  0  0
  7 12  1  0  0  0  0
  8 11  1  0  0  0  0
  9 14  2  0  0  0  0
 10 13  1  0  0  0  0
 11 16  2  0  0  0  0
 12 15  2  0  0  0  0
 14 15  1  0  0  0  0
 16 17  1  0  0  0  0
 17 19  2  0  0  0  0
 18 19  1  0  0  0  0
M  END
> <DATABASE_ID>
DB01558

> <DATABASE_NAME>
drugbank

> <SMILES>
BrC1=CC2=C(NC(=O)CN=C2C2=CC=CC=N2)C=C1

> <INCHI_IDENTIFIER>
InChI=1S/C14H10BrN3O/c15-9-4-5-11-10(7-9)14(17-8-13(19)18-11)12-3-1-2-6-16-12/h1-7H,8H2,(H,18,19)

> <INCHI_KEY>
VMIYHDSEFNYJSL-UHFFFAOYSA-N

> <FORMULA>
C14H10BrN3O

> <MOLECULAR_WEIGHT>
316.153

> <EXACT_MASS>
315.000724604

> <JCHEM_ACCEPTOR_COUNT>
3

> <JCHEM_AVERAGE_POLARIZABILITY>
28.10544719289046

> <JCHEM_BIOAVAILABILITY>
1

> <JCHEM_DONOR_COUNT>
1

> <JCHEM_FORMAL_CHARGE>
0

> <JCHEM_GHOSE_FILTER>
1

> <JCHEM_IUPAC>
7-bromo-5-(pyridin-2-yl)-2,3-dihydro-1H-1,4-benzodiazepin-2-one

> <ALOGPS_LOGP>
2.09

> <JCHEM_LOGP>
2.5449063463333332

> <ALOGPS_LOGS>
-3.90

> <JCHEM_MDDR_LIKE_RULE>
0

> <JCHEM_NUMBER_OF_RINGS>
3

> <JCHEM_PHYSIOLOGICAL_CHARGE>
0

> <JCHEM_PKA_STRONGEST_ACIDIC>
12.238633643745393

> <JCHEM_PKA_STRONGEST_BASIC>
2.675365429288418

> <JCHEM_POLAR_SURFACE_AREA>
54.35

> <JCHEM_REFRACTIVITY>
76.98510000000002

> <JCHEM_ROTATABLE_BOND_COUNT>
1

> <JCHEM_RULE_OF_FIVE>
1

> <ALOGPS_SOLUBILITY>
3.99e-02 g/l

> <JCHEM_TRADITIONAL_IUPAC>
bromazepam

> <JCHEM_VEBER_RULE>
0

> <DRUGBANK_ID>
DB01558

> <DRUG_GROUPS>
approved; illicit; investigational

> <GENERIC_NAME>
Bromazepam

> <SYNONYMS>
Bromacepam; Bromazepam; Bromazepamum

> <PRODUCTS>
Alti-bromazepam 1.5mg Tablets; Alti-bromazepam 3mg Tablets; Alti-bromazepam 6mg Tablets; Apo-bromazepam - Tab 1.5mg; Apo-bromazepam - Tab 3mg; Apo-bromazepam - Tab 6mg; Bromazepam-1.5 - Tab 1.5mg; Bromazepam-3 - Tab 3mg; Bromazepam-6 - Tab 6mg; Gen-bromazepam - Tab 3mg; Gen-bromazepam - Tab 6mg; Lectopam Tab 1.5mg; Lectopam Tab 3mg; Lectopam Tab 6mg; Mylan-bromazepam; Nu-bromazepam - Tab 1.5mg; Nu-bromazepam - Tab 3mg; Nu-bromazepam - Tab 6mg; Penta-bromazepam Tablets; Riva-bromazepam 3 mg; Riva-bromazepam 6 mg; Teva-bromazepam

> <INTERNATIONAL_BRANDS>
Calmepam; Creosedin; Durazanil; Lectopam; Lekotam; Lexaurin; Lexilium; Lexomil; Lexotan; Normoc; Ultramidol

$$$$
1559
  Mrv0541 02231215332D          

 21 23  0  0  0  0            999 V2000
    4.5315    0.6150    0.0000 Cl  0  0  0  0  0  0  0  0  0  0  0  0
    4.3908   -1.4629    0.0000 S   0  0  0  0  0  0  0  0  0  0  0  0
    1.6500   -2.2011    0.0000 O   0  0  0  0  0  0  0  0  0  0  0  0
    2.9664   -1.7330    0.0000 N   0  0  0  0  0  0  0  0  0  0  0  0
    2.1538   -0.0668    0.0000 N   0  0  0  0  0  0  0  0  0  0  0  0
    3.6048   -0.3904    0.0000 C   0  0  0  0  0  0  0  0  0  0  0  0
    3.6089   -1.2154    0.0000 C   0  0  0  0  0  0  0  0  0  0  0  0
    2.9572    0.1207    0.0000 C   0  0  0  0  0  0  0  0  0  0  0  0
    4.8689   -0.7966    0.0000 C   0  0  0  0  0  0  0  0  0  0  0  0
    4.3842   -0.1351    0.0000 C   0  0  0  0  0  0  0  0  0  0  0  0
    5.6940   -0.7925    0.0000 C   0  0  0  0  0  0  0  0  0  0  0  0
    1.7995   -0.8120    0.0000 C   0  0  0  0  0  0  0  0  0  0  0  0
    2.1612   -1.5535    0.0000 C   0  0  0  0  0  0  0  0  0  0  0  0
    3.1368    0.9260    0.0000 C   0  0  0  0  0  0  0  0  0  0  0  0
    3.1541   -2.5364    0.0000 C   0  0  0  0  0  0  0  0  0  0  0  0
    6.1100   -1.5049    0.0000 C   0  0  0  0  0  0  0  0  0  0  0  0
    3.9240    1.1731    0.0000 C   0  0  0  0  0  0  0  0  0  0  0  0
    2.5292    1.4841    0.0000 C   0  0  0  0  0  0  0  0  0  0  0  0
    4.1035    1.9783    0.0000 C   0  0  0  0  0  0  0  0  0  0  0  0
    2.7088    2.2893    0.0000 C   0  0  0  0  0  0  0  0  0  0  0  0
    3.4959    2.5364    0.0000 C   0  0  0  0  0  0  0  0  0  0  0  0
  1 17  1  0  0  0  0
  2  7  1  0  0  0  0
  2  9  1  0  0  0  0
  3 13  2  0  0  0  0
  4  7  1  0  0  0  0
  4 13  1  0  0  0  0
  4 15  1  0  0  0  0
  5  8  2  0  0  0  0
  5 12  1  0  0  0  0
  6  7  2  0  0  0  0
  6  8  1  0  0  0  0
  6 10  1  0  0  0  0
  8 14  1  0  0  0  0
  9 10  2  0  0  0  0
  9 11  1  0  0  0  0
 11 16  1  0  0  0  0
 12 13  1  0  0  0  0
 14 17  1  0  0  0  0
 14 18  2  0  0  0  0
 17 19  2  0  0  0  0
 18 20  1  0  0  0  0
 19 21  1  0  0  0  0
 20 21  2  0  0  0  0
M  END
> <DATABASE_ID>
DB01559

> <DATABASE_NAME>
drugbank

> <SMILES>
CCC1=CC2=C(S1)N(C)C(=O)CN=C2C1=CC=CC=C1Cl

> <INCHI_IDENTIFIER>
InChI=1S/C16H15ClN2OS/c1-3-10-8-12-15(11-6-4-5-7-13(11)17)18-9-14(20)19(2)16(12)21-10/h4-8H,3,9H2,1-2H3

> <INCHI_KEY>
CHBRHODLKOZEPZ-UHFFFAOYSA-N

> <FORMULA>
C16H15ClN2OS

> <MOLECULAR_WEIGHT>
318.821

> <EXACT_MASS>
318.059361509

> <JCHEM_ACCEPTOR_COUNT>
2

> <JCHEM_AVERAGE_POLARIZABILITY>
33.01238216949369

> <JCHEM_BIOAVAILABILITY>
1

> <JCHEM_DONOR_COUNT>
0

> <JCHEM_FORMAL_CHARGE>
0

> <JCHEM_GHOSE_FILTER>
1

> <JCHEM_IUPAC>
5-(2-chlorophenyl)-7-ethyl-1-methyl-1H,2H,3H-thieno[2,3-e][1,4]diazepin-2-one

> <ALOGPS_LOGP>
3.58

> <JCHEM_LOGP>
4.1129539663333325

> <ALOGPS_LOGS>
-4.77

> <JCHEM_MDDR_LIKE_RULE>
0

> <JCHEM_NUMBER_OF_RINGS>
3

> <JCHEM_PHYSIOLOGICAL_CHARGE>
0

> <JCHEM_PKA_STRONGEST_BASIC>
2.388366642131673

> <JCHEM_POLAR_SURFACE_AREA>
32.67

> <JCHEM_REFRACTIVITY>
85.65790000000001

> <JCHEM_ROTATABLE_BOND_COUNT>
2

> <JCHEM_RULE_OF_FIVE>
1

> <ALOGPS_SOLUBILITY>
5.37e-03 g/l

> <JCHEM_TRADITIONAL_IUPAC>
Rize

> <JCHEM_VEBER_RULE>
1

> <DRUGBANK_ID>
DB01559

> <DRUG_GROUPS>
approved; illicit

> <GENERIC_NAME>
Clotiazepam

> <SYNONYMS>
Clotiazepam; Clotiazepamum

> <INTERNATIONAL_BRANDS>
Clozan; Distensan; Rize; Rizen; Tienor

$$$$
1560
  Mrv0541 02231215332D          

 11 11  0  0  1  0            999 V2000
    1.6500    0.9034    0.0000 O   0  0  0  0  0  0  0  0  0  0  0  0
    3.0790    1.7284    0.0000 N   0  0  0  0  0  0  0  0  0  0  0  0
    3.0790    0.9034    0.0000 C   0  0  2  0  0  0  0  0  0  0  0  0
    2.3644    0.4909    0.0000 C   0  0  0  0  0  0  0  0  0  0  0  0
    2.3644   -0.3341    0.0000 C   0  0  0  0  0  0  0  0  0  0  0  0
    3.7934    0.4909    0.0000 C   0  0  0  0  0  0  0  0  0  0  0  0
    3.0790   -0.7466    0.0000 C   0  0  0  0  0  0  0  0  0  0  0  0
    1.6500   -0.7466    0.0000 C   0  0  0  0  0  0  0  0  0  0  0  0
    3.0790   -1.5716    0.0000 C   0  0  0  0  0  0  0  0  0  0  0  0
    1.6500   -1.5716    0.0000 C   0  0  0  0  0  0  0  0  0  0  0  0
    2.3644   -1.9841    0.0000 C   0  0  0  0  0  0  0  0  0  0  0  0
  1  4  2  0  0  0  0
  3  2  1  1  0  0  0
  3  4  1  0  0  0  0
  3  6  1  0  0  0  0
  4  5  1  0  0  0  0
  5  7  2  0  0  0  0
  5  8  1  0  0  0  0
  7  9  1  0  0  0  0
  8 10  2  0  0  0  0
  9 11  2  0  0  0  0
 10 11  1  0  0  0  0
M  END
> <DATABASE_ID>
DB01560

> <DATABASE_NAME>
drugbank

> <SMILES>
C[C@H](N)C(=O)C1=CC=CC=C1

> <INCHI_IDENTIFIER>
InChI=1S/C9H11NO/c1-7(10)9(11)8-5-3-2-4-6-8/h2-7H,10H2,1H3/t7-/m0/s1

> <INCHI_KEY>
PUAQLLVFLMYYJJ-ZETCQYMHSA-N

> <FORMULA>
C9H11NO

> <MOLECULAR_WEIGHT>
149.1897

> <EXACT_MASS>
149.084063979

> <JCHEM_ACCEPTOR_COUNT>
2

> <JCHEM_AVERAGE_POLARIZABILITY>
16.28274284159039

> <JCHEM_BIOAVAILABILITY>
1

> <JCHEM_DONOR_COUNT>
1

> <JCHEM_FORMAL_CHARGE>
0

> <JCHEM_GHOSE_FILTER>
0

> <JCHEM_IUPAC>
(2S)-2-amino-1-phenylpropan-1-one

> <ALOGPS_LOGP>
0.51

> <JCHEM_LOGP>
1.1755277343333332

> <ALOGPS_LOGS>
-1.78

> <JCHEM_MDDR_LIKE_RULE>
0

> <JCHEM_NUMBER_OF_RINGS>
1

> <JCHEM_PHYSIOLOGICAL_CHARGE>
1

> <JCHEM_PKA_STRONGEST_ACIDIC>
18.64886830145669

> <JCHEM_PKA_STRONGEST_BASIC>
7.550632643399113

> <JCHEM_POLAR_SURFACE_AREA>
43.09

> <JCHEM_REFRACTIVITY>
44.314400000000006

> <JCHEM_ROTATABLE_BOND_COUNT>
2

> <JCHEM_RULE_OF_FIVE>
1

> <ALOGPS_SOLUBILITY>
2.46e+00 g/l

> <JCHEM_TRADITIONAL_IUPAC>
cathinone

> <JCHEM_VEBER_RULE>
0

> <DRUGBANK_ID>
DB01560

> <DRUG_GROUPS>
illicit

> <GENERIC_NAME>
Cathinone

> <SYNONYMS>
alpha-Aminopropiophenone; Cathinone; Cathinonum; Catinona; D-Cathinone; Norephedrone

$$$$
1561
  Mrv0541 02231215332D          

 25 28  0  0  1  0            999 V2000
    7.1353    1.7956    0.0000 O   0  0  0  0  0  0  0  0  0  0  0  0
    1.6498   -1.7578    0.0000 O   0  0  0  0  0  0  0  0  0  0  0  0
    4.6697   -0.0648    0.0000 C   0  0  1  0  0  0  0  0  0  0  0  0
    5.3842   -0.4772    0.0000 C   0  0  2  0  0  0  0  0  0  0  0  0
    3.9191   -0.4829    0.0000 C   0  0  2  0  0  0  0  0  0  0  0  0
    6.0985   -0.0648    0.0000 C   0  0  1  0  0  0  0  0  0  0  0  0
    6.0985    0.7601    0.0000 C   0  0  2  0  0  0  0  0  0  0  0  0
    3.9125   -1.3421    0.0000 C   0  0  1  0  0  0  0  0  0  0  0  0
    4.6697    0.7601    0.0000 C   0  0  0  0  0  0  0  0  0  0  0  0
    5.3974   -1.3363    0.0000 C   0  0  0  0  0  0  0  0  0  0  0  0
    5.3842    1.1725    0.0000 C   0  0  0  0  0  0  0  0  0  0  0  0
    4.6566   -1.7717    0.0000 C   0  0  0  0  0  0  0  0  0  0  0  0
    6.8790   -0.3162    0.0000 C   0  0  0  0  0  0  0  0  0  0  0  0
    3.1546   -0.0176    0.0000 C   0  0  0  0  0  0  0  0  0  0  0  0
    6.8790    1.0115    0.0000 C   0  0  0  0  0  0  0  0  0  0  0  0
    3.9254    0.3420    0.0000 C   0  0  0  0  0  0  0  0  0  0  0  0
    3.1409   -1.7956    0.0000 C   0  0  0  0  0  0  0  0  0  0  0  0
    7.3604    0.3477    0.0000 C   0  0  0  0  0  0  0  0  0  0  0  0
    6.0985    1.5850    0.0000 C   0  0  0  0  0  0  0  0  0  0  0  0
    2.3726   -0.4531    0.0000 C   0  0  0  0  0  0  0  0  0  0  0  0
    2.3657   -1.3480    0.0000 C   0  0  0  0  0  0  0  0  0  0  0  0
    5.2413    0.2652    0.0000 H   0  0  0  0  0  0  0  0  0  0  0  0
    5.9581   -0.8028    0.0000 H   0  0  0  0  0  0  0  0  0  0  0  0
    6.1683   -0.7210    0.0000 H   0  0  0  0  0  0  0  0  0  0  0  0
    3.9150   -2.0020    0.0000 H   0  0  0  0  0  0  0  0  0  0  0  0
  1 15  2  0  0  0  0
  2 21  2  0  0  0  0
  3  4  1  0  0  0  0
  3  5  1  0  0  0  0
  3  9  1  0  0  0  0
  3 22  1  6  0  0  0
  4  6  1  0  0  0  0
  4 10  1  0  0  0  0
  4 23  1  1  0  0  0
  5  8  1  0  0  0  0
  5 14  1  0  0  0  0
  5 16  1  1  0  0  0
  6  7  1  0  0  0  0
  6 13  1  0  0  0  0
  6 24  1  6  0  0  0
  7 11  1  0  0  0  0
  7 15  1  0  0  0  0
  7 19  1  1  0  0  0
  8 12  1  0  0  0  0
  8 17  1  0  0  0  0
  8 25  1  6  0  0  0
  9 11  1  0  0  0  0
 10 12  1  0  0  0  0
 13 18  1  0  0  0  0
 14 20  1  0  0  0  0
 15 18  1  0  0  0  0
 17 21  1  0  0  0  0
 20 21  1  0  0  0  0
M  END
> <DATABASE_ID>
DB01561

> <DATABASE_NAME>
drugbank

> <SMILES>
[H][C@@]12CCC(=O)[C@@]1(C)CC[C@@]1([H])[C@@]2([H])CC[C@@]2([H])CC(=O)CC[C@]12C

> <INCHI_IDENTIFIER>
InChI=1S/C19H28O2/c1-18-9-7-13(20)11-12(18)3-4-14-15-5-6-17(21)19(15,2)10-8-16(14)18/h12,14-16H,3-11H2,1-2H3/t12-,14-,15-,16-,18-,19-/m0/s1

> <INCHI_KEY>
RAJWOBJTTGJROA-WZNAKSSCSA-N

> <FORMULA>
C19H28O2

> <MOLECULAR_WEIGHT>
288.4244

> <EXACT_MASS>
288.20893014

> <JCHEM_ACCEPTOR_COUNT>
2

> <JCHEM_AVERAGE_POLARIZABILITY>
33.840335487316494

> <JCHEM_BIOAVAILABILITY>
1

> <JCHEM_DONOR_COUNT>
0

> <JCHEM_FORMAL_CHARGE>
0

> <JCHEM_GHOSE_FILTER>
1

> <JCHEM_IUPAC>
(1S,2S,7S,10R,11S,15S)-2,15-dimethyltetracyclo[8.7.0.0²,⁷.0¹¹,¹⁵]heptadecane-5,14-dione

> <ALOGPS_LOGP>
3.40

> <JCHEM_LOGP>
3.9747853383333336

> <ALOGPS_LOGS>
-4.59

> <JCHEM_MDDR_LIKE_RULE>
0

> <JCHEM_NUMBER_OF_RINGS>
4

> <JCHEM_PHYSIOLOGICAL_CHARGE>
0

> <JCHEM_PKA_STRONGEST_ACIDIC>
19.776207883092308

> <JCHEM_PKA_STRONGEST_BASIC>
-7.108868634299542

> <JCHEM_POLAR_SURFACE_AREA>
34.14

> <JCHEM_REFRACTIVITY>
82.7808

> <JCHEM_ROTATABLE_BOND_COUNT>
0

> <JCHEM_RULE_OF_FIVE>
1

> <ALOGPS_SOLUBILITY>
7.39e-03 g/l

> <JCHEM_TRADITIONAL_IUPAC>
androstanedione

> <JCHEM_VEBER_RULE>
1

> <DRUGBANK_ID>
DB01561

> <SECONDARY_ACCESSION_NUMBERS>
DB03620

> <DRUG_GROUPS>
experimental; illicit

> <GENERIC_NAME>
Androstanedione

> <SYNONYMS>
5alpha-Androstan-3,17-dione; 5α-androstane-3,17-dione

$$$$

  Mrv0541 02231215342D          

 24 26  0  0  0  0            999 V2000
    2.8876    2.3241    0.0000 O   0  0  0  0  0  0  0  0  0  0  0  0
    1.6500    1.6096    0.0000 O   0  0  0  0  0  0  0  0  0  0  0  0
    3.3001   -0.0404    0.0000 N   0  0  0  0  0  0  0  0  0  0  0  0
    3.3001    1.6096    0.0000 C   0  0  0  0  0  0  0  0  0  0  0  0
    2.5856    1.1971    0.0000 C   0  0  0  0  0  0  0  0  0  0  0  0
    4.0145    1.1971    0.0000 C   0  0  0  0  0  0  0  0  0  0  0  0
    2.5856    0.3721    0.0000 C   0  0  0  0  0  0  0  0  0  0  0  0
    4.0145    0.3721    0.0000 C   0  0  0  0  0  0  0  0  0  0  0  0
    3.7126    2.3241    0.0000 C   0  0  0  0  0  0  0  0  0  0  0  0
    3.3001   -0.8654    0.0000 C   0  0  0  0  0  0  0  0  0  0  0  0
    2.5856   -1.2780    0.0000 C   0  0  0  0  0  0  0  0  0  0  0  0
    3.3001    3.0385    0.0000 C   0  0  0  0  0  0  0  0  0  0  0  0
    4.5376    2.3241    0.0000 C   0  0  0  0  0  0  0  0  0  0  0  0
    2.0625    2.3241    0.0000 C   0  0  0  0  0  0  0  0  0  0  0  0
    2.5856   -2.1030    0.0000 C   0  0  0  0  0  0  0  0  0  0  0  0
    3.7126    3.7530    0.0000 C   0  0  0  0  0  0  0  0  0  0  0  0
    4.9501    3.0385    0.0000 C   0  0  0  0  0  0  0  0  0  0  0  0
    4.5376    3.7530    0.0000 C   0  0  0  0  0  0  0  0  0  0  0  0
    1.6500    3.0385    0.0000 C   0  0  0  0  0  0  0  0  0  0  0  0
    3.3001   -2.5155    0.0000 C   0  0  0  0  0  0  0  0  0  0  0  0
    1.8711   -2.5155    0.0000 C   0  0  0  0  0  0  0  0  0  0  0  0
    3.3001   -3.3405    0.0000 C   0  0  0  0  0  0  0  0  0  0  0  0
    1.8711   -3.3405    0.0000 C   0  0  0  0  0  0  0  0  0  0  0  0
    2.5856   -3.7530    0.0000 C   0  0  0  0  0  0  0  0  0  0  0  0
  1  4  1  0  0  0  0
  1 14  1  0  0  0  0
  2 14  2  0  0  0  0
  3  7  1  0  0  0  0
  3  8  1  0  0  0  0
  3 10  1  0  0  0  0
  4  5  1  0  0  0  0
  4  6  1  0  0  0  0
  4  9  1  0  0  0  0
  5  7  1  0  0  0  0
  6  8  1  0  0  0  0
  9 12  2  0  0  0  0
  9 13  1  0  0  0  0
 10 11  1  0  0  0  0
 11 15  1  0  0  0  0
 12 16  1  0  0  0  0
 13 17  2  0  0  0  0
 14 19  1  0  0  0  0
 15 20  2  0  0  0  0
 15 21  1  0  0  0  0
 16 18  2  0  0  0  0
 17 18  1  0  0  0  0
 20 22  1  0  0  0  0
 21 23  2  0  0  0  0
 22 24  2  0  0  0  0
 23 24  1  0  0  0  0
M  END
> <DATABASE_ID>
DB01562

> <DATABASE_NAME>
drugbank

> <SMILES>
CC(=O)OC1(CCN(CCC2=CC=CC=C2)CC1)C1=CC=CC=C1

> <INCHI_IDENTIFIER>
InChI=1S/C21H25NO2/c1-18(23)24-21(20-10-6-3-7-11-20)13-16-22(17-14-21)15-12-19-8-4-2-5-9-19/h2-11H,12-17H2,1H3

> <INCHI_KEY>
BVURVTVDNWSNFN-UHFFFAOYSA-N

> <FORMULA>
C21H25NO2

> <MOLECULAR_WEIGHT>
323.4287

> <EXACT_MASS>
323.188529049

> <JCHEM_ACCEPTOR_COUNT>
2

> <JCHEM_AVERAGE_POLARIZABILITY>
37.54567622618381

> <JCHEM_BIOAVAILABILITY>
1

> <JCHEM_DONOR_COUNT>
0

> <JCHEM_FORMAL_CHARGE>
0

> <JCHEM_GHOSE_FILTER>
1

> <JCHEM_IUPAC>
4-phenyl-1-(2-phenylethyl)piperidin-4-yl acetate

> <ALOGPS_LOGP>
4.18

> <JCHEM_LOGP>
3.6107306219999993

> <ALOGPS_LOGS>
-4.74

> <JCHEM_MDDR_LIKE_RULE>
1

> <JCHEM_NUMBER_OF_RINGS>
3

> <JCHEM_PHYSIOLOGICAL_CHARGE>
1

> <JCHEM_PKA_STRONGEST_BASIC>
9.237111568601499

> <JCHEM_POLAR_SURFACE_AREA>
29.54

> <JCHEM_REFRACTIVITY>
96.73370000000004

> <JCHEM_ROTATABLE_BOND_COUNT>
6

> <JCHEM_RULE_OF_FIVE>
1

> <ALOGPS_SOLUBILITY>
5.92e-03 g/l

> <JCHEM_TRADITIONAL_IUPAC>
pepap

> <JCHEM_VEBER_RULE>
1

> <DRUGBANK_ID>
DB01562

> <DRUG_GROUPS>
experimental; illicit

> <GENERIC_NAME>
1-(2-Phenylethyl)-4-phenyl-4-acetoxypiperidine

> <SYNONYMS>
1-(2-Phenethyl)-4-phenyl-4-acetoxypiperidine; 1-Phenethyl-4-phenyl-4-piperidinol acetate (ester); PEPAP

$$$$
1563
  Mrv0541 02231215342D          

  7  6  0  0  0  0            999 V2000
    1.6500   -0.8019    0.0000 Cl  0  0  0  0  0  0  0  0  0  0  0  0
    1.9520    0.3251    0.0000 Cl  0  0  0  0  0  0  0  0  0  0  0  0
    2.7770   -1.1039    0.0000 Cl  0  0  0  0  0  0  0  0  0  0  0  0
    3.7935   -0.3894    0.0000 O   0  0  0  0  0  0  0  0  0  0  0  0
    3.0791    0.8481    0.0000 O   0  0  0  0  0  0  0  0  0  0  0  0
    3.0791    0.0231    0.0000 C   0  0  0  0  0  0  0  0  0  0  0  0
    2.3645   -0.3894    0.0000 C   0  0  0  0  0  0  0  0  0  0  0  0
  1  7  1  0  0  0  0
  2  7  1  0  0  0  0
  3  7  1  0  0  0  0
  4  6  1  0  0  0  0
  5  6  1  0  0  0  0
  6  7  1  0  0  0  0
M  END
> <DATABASE_ID>
DB01563

> <DATABASE_NAME>
drugbank

> <SMILES>
OC(O)C(Cl)(Cl)Cl

> <INCHI_IDENTIFIER>
InChI=1S/C2H3Cl3O2/c3-2(4,5)1(6)7/h1,6-7H

> <INCHI_KEY>
RNFNDJAIBTYOQL-UHFFFAOYSA-N

> <FORMULA>
C2H3Cl3O2

> <MOLECULAR_WEIGHT>
165.403

> <EXACT_MASS>
163.919862461

> <JCHEM_ACCEPTOR_COUNT>
2

> <JCHEM_AVERAGE_POLARIZABILITY>
11.882383768726879

> <JCHEM_BIOAVAILABILITY>
1

> <JCHEM_DONOR_COUNT>
2

> <JCHEM_FORMAL_CHARGE>
0

> <JCHEM_GHOSE_FILTER>
0

> <JCHEM_IUPAC>
2,2,2-trichloroethane-1,1-diol

> <ALOGPS_LOGP>
0.88

> <JCHEM_LOGP>
0.6923550136666667

> <ALOGPS_LOGS>
-0.58

> <JCHEM_MDDR_LIKE_RULE>
0

> <JCHEM_NUMBER_OF_RINGS>
0

> <JCHEM_PHYSIOLOGICAL_CHARGE>
0

> <JCHEM_PKA>
11.47153111794237

> <JCHEM_PKA_STRONGEST_ACIDIC>
9.509396531155064

> <JCHEM_PKA_STRONGEST_BASIC>
-5.0687194371693485

> <JCHEM_POLAR_SURFACE_AREA>
40.46

> <JCHEM_REFRACTIVITY>
29.245699999999992

> <JCHEM_ROTATABLE_BOND_COUNT>
1

> <JCHEM_RULE_OF_FIVE>
1

> <ALOGPS_SOLUBILITY>
4.34e+01 g/l

> <JCHEM_TRADITIONAL_IUPAC>
chloral hydrate

> <JCHEM_VEBER_RULE>
0

> <DRUGBANK_ID>
DB01563

> <DRUG_GROUPS>
approved; illicit; investigational; vet_approved

> <GENERIC_NAME>
Chloral hydrate

> <SYNONYMS>
1,1,1-trichloro-2,2-dihydroxyethane; 1,1,1-trichloro-2,2-ethanediol; 2,2,2-trichloro-1,1-ethanediol; chloral monohydrate; Chloralhydrat; Trichloracetaldehyd-hydrat; trichloroacetaldehyde hydrate

> <PRODUCTS>
Analgesic Balm; Apo-chloral Hydrate Syrup; Calmitol Itching Relief Ont; Chloral Hydrate Capsules 500mg; Chloral Hydrate Syrup Odan; Novo-chlorhydrate Cap 500mg; PMS-chloral Hydrate Capsules 500mg; PMS-chloral Hydrate Syrup 100mg/ml; Somnote

> <INTERNATIONAL_BRANDS>
Aquachloral Supprettes

$$$$
1564
  Mrv0541 02231215342D          

 26 29  0  0  1  0            999 V2000
    7.5474    1.4947    0.0000 O   0  0  0  0  0  0  0  0  0  0  0  0
    1.6498   -1.7582    0.0000 O   0  0  0  0  0  0  0  0  0  0  0  0
    6.0987   -0.0653    0.0000 C   0  0  2  0  0  0  0  0  0  0  0  0
    6.0987    0.7597    0.0000 C   0  0  1  0  0  0  0  0  0  0  0  0
    5.3843   -0.4777    0.0000 C   0  0  1  0  0  0  0  0  0  0  0  0
    4.6698   -0.0653    0.0000 C   0  0  1  0  0  0  0  0  0  0  0  0
    6.8793    1.0111    0.0000 C   0  0  2  0  0  0  0  0  0  0  0  0
    3.9192   -0.4833    0.0000 C   0  0  2  0  0  0  0  0  0  0  0  0
    5.3843    1.1722    0.0000 C   0  0  0  0  0  0  0  0  0  0  0  0
    4.6698    0.7597    0.0000 C   0  0  0  0  0  0  0  0  0  0  0  0
    6.8793   -0.3166    0.0000 C   0  0  0  0  0  0  0  0  0  0  0  0
    5.3975   -1.3368    0.0000 C   0  0  2  0  0  0  0  0  0  0  0  0
    7.3606    0.3472    0.0000 C   0  0  0  0  0  0  0  0  0  0  0  0
    4.6567   -1.7722    0.0000 C   0  0  0  0  0  0  0  0  0  0  0  0
    3.9126   -1.3425    0.0000 C   0  0  0  0  0  0  0  0  0  0  0  0
    6.0987    1.5846    0.0000 C   0  0  0  0  0  0  0  0  0  0  0  0
    3.1546   -0.0180    0.0000 C   0  0  0  0  0  0  0  0  0  0  0  0
    6.6257    1.7960    0.0000 C   0  0  0  0  0  0  0  0  0  0  0  0
    3.9255    0.3416    0.0000 C   0  0  0  0  0  0  0  0  0  0  0  0
    6.1167   -1.7410    0.0000 C   0  0  0  0  0  0  0  0  0  0  0  0
    2.3727   -0.4535    0.0000 C   0  0  0  0  0  0  0  0  0  0  0  0
    3.1409   -1.7960    0.0000 C   0  0  0  0  0  0  0  0  0  0  0  0
    2.3658   -1.3485    0.0000 C   0  0  0  0  0  0  0  0  0  0  0  0
    6.1685   -0.7215    0.0000 H   0  0  0  0  0  0  0  0  0  0  0  0
    5.9583   -0.8032    0.0000 H   0  0  0  0  0  0  0  0  0  0  0  0
    5.2415    0.2647    0.0000 H   0  0  0  0  0  0  0  0  0  0  0  0
  7  1  1  1  0  0  0
  2 23  2  0  0  0  0
  3  4  1  0  0  0  0
  3  5  1  0  0  0  0
  3 11  1  0  0  0  0
  3 24  1  6  0  0  0
  4  7  1  0  0  0  0
  4  9  1  0  0  0  0
  4 16  1  1  0  0  0
  5  6  1  0  0  0  0
  5 12  1  0  0  0  0
  5 25  1  1  0  0  0
  6  8  1  0  0  0  0
  6 10  1  0  0  0  0
  6 26  1  6  0  0  0
  7 13  1  0  0  0  0
  7 18  1  0  0  0  0
  8 15  1  0  0  0  0
  8 17  1  0  0  0  0
  8 19  1  1  0  0  0
  9 10  1  0  0  0  0
 11 13  1  0  0  0  0
 12 14  1  0  0  0  0
 12 20  1  1  0  0  0
 14 15  1  0  0  0  0
 15 22  2  0  0  0  0
 17 21  1  0  0  0  0
 21 23  1  0  0  0  0
 22 23  1  0  0  0  0
M  END
> <DATABASE_ID>
DB01564

> <DATABASE_NAME>
drugbank

> <SMILES>
[H][C@@]12CC[C@](C)(O)[C@@]1(C)CC[C@@]1([H])[C@@]2([H])[C@@H](C)CC2=CC(=O)CC[C@]12C

> <INCHI_IDENTIFIER>
InChI=1S/C21H32O2/c1-13-11-14-12-15(22)5-8-19(14,2)16-6-9-20(3)17(18(13)16)7-10-21(20,4)23/h12-13,16-18,23H,5-11H2,1-4H3/t13-,16-,17-,18+,19-,20-,21-/m0/s1

> <INCHI_KEY>
IVFYLRMMHVYGJH-PVPPCFLZSA-N

> <FORMULA>
C21H32O2

> <MOLECULAR_WEIGHT>
316.4776

> <EXACT_MASS>
316.240230268

> <JCHEM_ACCEPTOR_COUNT>
2

> <JCHEM_AVERAGE_POLARIZABILITY>
37.77128360682956

> <JCHEM_BIOAVAILABILITY>
1

> <JCHEM_DONOR_COUNT>
1

> <JCHEM_FORMAL_CHARGE>
0

> <JCHEM_GHOSE_FILTER>
1

> <JCHEM_IUPAC>
(1S,2R,9S,10R,11S,14S,15S)-14-hydroxy-2,9,14,15-tetramethyltetracyclo[8.7.0.0²,⁷.0¹¹,¹⁵]heptadec-6-en-5-one

> <ALOGPS_LOGP>
3.55

> <JCHEM_LOGP>
3.933019062333334

> <ALOGPS_LOGS>
-4.45

> <JCHEM_MDDR_LIKE_RULE>
0

> <JCHEM_NUMBER_OF_RINGS>
4

> <JCHEM_PHYSIOLOGICAL_CHARGE>
0

> <JCHEM_PKA_STRONGEST_ACIDIC>
19.564040768992434

> <JCHEM_PKA_STRONGEST_BASIC>
-0.5280731514980953

> <JCHEM_POLAR_SURFACE_AREA>
37.3

> <JCHEM_REFRACTIVITY>
93.61659999999999

> <JCHEM_ROTATABLE_BOND_COUNT>
0

> <JCHEM_RULE_OF_FIVE>
1

> <ALOGPS_SOLUBILITY>
1.12e-02 g/l

> <JCHEM_TRADITIONAL_IUPAC>
calusterone

> <JCHEM_VEBER_RULE>
1

> <DRUGBANK_ID>
DB01564

> <DRUG_GROUPS>
experimental; illicit

> <GENERIC_NAME>
Calusterone

> <SYNONYMS>
17-beta-Hydroxy-7-beta,17-alpha-dimethylandrost-4-ene-3-one; 17beta-Hydroxy-7beta,17-dimethylandrost-4-en-3-one; 17beta-Hydroxy-7beta,17alpha-dimethylandrost-4-ene-3-one; 7-beta,17-alpha-Dimethyl testosterone; 7-beta,17-Dimethyltestosterone; 7beta,17-Dimethyltestosterone; 7beta,17alpha-Dimethyltestosterone; Calusterona; Calusterone; Calusteronum; CLS

> <INTERNATIONAL_BRANDS>
Methosarb; Riedemil

$$$$
327
  Mrv1909 07311922412D          

 24 28  0  0  1  0            999 V2000
    2.1326   -0.2369    0.0000 O   0  0  0  0  0  0  0  0  0  0  0  0
    1.9319   -2.3664    0.0000 O   0  0  0  0  0  0  0  0  0  0  0  0
    1.9319    1.8010    0.0000 O   0  0  0  0  0  0  0  0  0  0  0  0
    5.5409   -1.1076    0.0000 N   0  0  0  0  0  0  0  0  0  0  0  0
    3.3976   -0.6952    0.0000 C   0  0  1  0  0  0  0  0  0  0  0  0
    4.1120   -1.1076    0.0000 C   0  0  2  0  0  0  0  0  0  0  0  0
    4.8265   -0.6952    0.0000 C   0  0  1  0  0  0  0  0  0  0  0  0
    2.6831   -1.1076    0.0000 C   0  0  2  0  0  0  0  0  0  0  0  0
    3.8742   -0.0902    0.0000 C   0  0  0  0  0  0  0  0  0  0  0  0
    3.3976    0.1297    0.0000 C   0  0  0  0  0  0  0  0  0  0  0  0
    4.1120   -1.9327    0.0000 C   0  0  0  0  0  0  0  0  0  0  0  0
    4.8265    0.1297    0.0000 C   0  0  0  0  0  0  0  0  0  0  0  0
    5.0475   -0.0902    0.0000 C   0  0  0  0  0  0  0  0  0  0  0  0
    4.1120    0.5422    0.0000 C   0  0  0  0  0  0  0  0  0  0  0  0
    3.3976   -2.3452    0.0000 C   0  0  0  0  0  0  0  0  0  0  0  0
    2.6831   -1.9327    0.0000 C   0  0  2  0  0  0  0  0  0  0  0  0
    2.6831    0.5422    0.0000 C   0  0  0  0  0  0  0  0  0  0  0  0
    6.1318   -1.7427    0.0000 C   0  0  0  0  0  0  0  0  0  0  0  0
    4.1120    1.3672    0.0000 C   0  0  0  0  0  0  0  0  0  0  0  0
    2.6831    1.3672    0.0000 C   0  0  0  0  0  0  0  0  0  0  0  0
    3.3976    1.7796    0.0000 C   0  0  0  0  0  0  0  0  0  0  0  0
    4.5580   -1.6392    0.0000 H   0  0  0  0  0  0  0  0  0  0  0  0
    5.0644   -1.3471    0.0000 H   0  0  0  0  0  0  0  0  0  0  0  0
    2.0166   -1.3007    0.0000 H   0  0  0  0  0  0  0  0  0  0  0  0
  1 17  1  0  0  0  0
  3 20  1  0  0  0  0
  4  7  1  0  0  0  0
  4 13  1  0  0  0  0
  4 18  1  0  0  0  0
  5  6  1  0  0  0  0
  5  8  1  0  0  0  0
  5  9  1  1  0  0  0
  5 10  1  0  0  0  0
  6  7  1  0  0  0  0
  6 11  1  0  0  0  0
  6 22  1  1  0  0  0
  7 12  1  0  0  0  0
  7 23  1  6  0  0  0
  8 16  1  0  0  0  0
  8 24  1  1  0  0  0
  9 13  1  0  0  0  0
 10 14  2  0  0  0  0
 10 17  1  0  0  0  0
 11 15  1  0  0  0  0
 12 14  1  0  0  0  0
 14 19  1  0  0  0  0
 15 16  1  0  0  0  0
 17 20  2  0  0  0  0
 19 21  2  0  0  0  0
 20 21  1  0  0  0  0
 16  2  1  6  0  0  0
  8  1  1  6  0  0  0
M  END
> <DATABASE_ID>
DB01565

> <DATABASE_NAME>
drugbank

> <SMILES>
[H][C@@]12OC3=C(O)C=CC4=C3[C@@]11CCN(C)[C@]([H])(C4)[C@]1([H])CC[C@@H]2O

> <INCHI_IDENTIFIER>
InChI=1S/C17H21NO3/c1-18-7-6-17-10-3-5-13(20)16(17)21-15-12(19)4-2-9(14(15)17)8-11(10)18/h2,4,10-11,13,16,19-20H,3,5-8H2,1H3/t10-,11+,13-,16-,17-/m0/s1

> <INCHI_KEY>
IJVCSMSMFSCRME-KBQPJGBKSA-N

> <FORMULA>
C17H21NO3

> <MOLECULAR_WEIGHT>
287.3535

> <EXACT_MASS>
287.152143543

> <JCHEM_ACCEPTOR_COUNT>
4

> <JCHEM_ATOM_COUNT>
42

> <JCHEM_AVERAGE_POLARIZABILITY>
30.675439214909165

> <JCHEM_BIOAVAILABILITY>
1

> <JCHEM_DONOR_COUNT>
2

> <JCHEM_FORMAL_CHARGE>
0

> <JCHEM_GHOSE_FILTER>
1

> <JCHEM_IUPAC>
(1S,5R,13R,14S,17R)-4-methyl-12-oxa-4-azapentacyclo[9.6.1.0^{1,13}.0^{5,17}.0^{7,18}]octadeca-7(18),8,10-triene-10,14-diol

> <JCHEM_LOGP>
1.0786493941262352

> <JCHEM_MDDR_LIKE_RULE>
0

> <JCHEM_NUMBER_OF_RINGS>
5

> <JCHEM_PHYSIOLOGICAL_CHARGE>
1

> <JCHEM_PKA>
14.151856484300977

> <JCHEM_PKA_STRONGEST_ACIDIC>
10.288931769658

> <JCHEM_PKA_STRONGEST_BASIC>
9.235781522934591

> <JCHEM_POLAR_SURFACE_AREA>
52.93

> <JCHEM_REFRACTIVITY>
79.15980000000002

> <JCHEM_ROTATABLE_BOND_COUNT>
0

> <JCHEM_RULE_OF_FIVE>
1

> <JCHEM_TRADITIONAL_IUPAC>
(1S,5R,13R,14R,17R)-4-methyl-12-oxa-4-azapentacyclo[9.6.1.0^{1,13}.0^{5,17}.0^{7,18}]octadeca-7(18),8,10-triene-10,14-diol

> <JCHEM_VEBER_RULE>
0

> <DRUGBANK_ID>
DB01565

> <DRUG_GROUPS>
experimental; illicit

> <GENERIC_NAME>
Dihydromorphine

$$$$
1566
  Mrv0541 02231215342D          

 15 16  0  0  1  0            999 V2000
    7.4321    0.4081    0.0000 O   0  0  0  0  0  0  0  0  0  0  0  0
    7.4321   -0.9196    0.0000 O   0  0  0  0  0  0  0  0  0  0  0  0
    3.0791    0.5693    0.0000 N   0  0  0  0  0  0  0  0  0  0  0  0
    3.7935    0.1568    0.0000 C   0  0  0  0  0  0  0  0  0  0  0  0
    4.5080    0.5693    0.0000 C   0  0  0  0  0  0  0  0  0  0  0  0
    5.2224    0.1568    0.0000 C   0  0  0  0  0  0  0  0  0  0  0  0
    3.7935   -0.6683    0.0000 C   0  0  0  0  0  0  0  0  0  0  0  0
    5.9370    0.5693    0.0000 C   0  0  0  0  0  0  0  0  0  0  0  0
    2.3645    0.1568    0.0000 C   0  0  0  0  0  0  0  0  0  0  0  0
    5.2224   -0.6683    0.0000 C   0  0  0  0  0  0  0  0  0  0  0  0
    6.6515    0.1568    0.0000 C   0  0  0  0  0  0  0  0  0  0  0  0
    6.6515   -0.6683    0.0000 C   0  0  0  0  0  0  0  0  0  0  0  0
    5.9370   -1.0808    0.0000 C   0  0  0  0  0  0  0  0  0  0  0  0
    1.6500    0.5693    0.0000 C   0  0  0  0  0  0  0  0  0  0  0  0
    7.9136   -0.2558    0.0000 C   0  0  0  0  0  0  0  0  0  0  0  0
  1 11  1  0  0  0  0
  1 15  1  0  0  0  0
  2 12  1  0  0  0  0
  2 15  1  0  0  0  0
  3  4  1  0  0  0  0
  3  9  1  0  0  0  0
  4  5  1  0  0  0  0
  4  7  1  0  0  0  0
  5  6  1  0  0  0  0
  6  8  2  0  0  0  0
  6 10  1  0  0  0  0
  8 11  1  0  0  0  0
  9 14  1  0  0  0  0
 10 13  2  0  0  0  0
 11 12  2  0  0  0  0
 12 13  1  0  0  0  0
M  END
> <DATABASE_ID>
DB01566

> <DATABASE_NAME>
drugbank

> <SMILES>
CCNC(C)CC1=CC2=C(OCO2)C=C1

> <INCHI_IDENTIFIER>
InChI=1S/C12H17NO2/c1-3-13-9(2)6-10-4-5-11-12(7-10)15-8-14-11/h4-5,7,9,13H,3,6,8H2,1-2H3

> <INCHI_KEY>
PVXVWWANJIWJOO-UHFFFAOYSA-N

> <FORMULA>
C12H17NO2

> <MOLECULAR_WEIGHT>
207.2689

> <EXACT_MASS>
207.125928793

> <JCHEM_ACCEPTOR_COUNT>
3

> <JCHEM_AVERAGE_POLARIZABILITY>
23.41178982166382

> <JCHEM_BIOAVAILABILITY>
1

> <JCHEM_DONOR_COUNT>
1

> <JCHEM_FORMAL_CHARGE>
0

> <JCHEM_GHOSE_FILTER>
1

> <JCHEM_IUPAC>
[1-(2H-1,3-benzodioxol-5-yl)propan-2-yl](ethyl)amine

> <ALOGPS_LOGP>
2.25

> <JCHEM_LOGP>
2.2168722976666664

> <ALOGPS_LOGS>
-2.15

> <JCHEM_MDDR_LIKE_RULE>
0

> <JCHEM_NUMBER_OF_RINGS>
2

> <JCHEM_PHYSIOLOGICAL_CHARGE>
1

> <JCHEM_PKA_STRONGEST_BASIC>
10.220089146751718

> <JCHEM_POLAR_SURFACE_AREA>
30.490000000000002

> <JCHEM_REFRACTIVITY>
58.995300000000015

> <JCHEM_ROTATABLE_BOND_COUNT>
4

> <JCHEM_RULE_OF_FIVE>
1

> <ALOGPS_SOLUBILITY>
1.46e+00 g/l

> <JCHEM_TRADITIONAL_IUPAC>
methylenedioxyethylamphetamine

> <JCHEM_VEBER_RULE>
1

> <DRUGBANK_ID>
DB01566

> <DRUG_GROUPS>
experimental; illicit

> <GENERIC_NAME>
Methylenedioxyethamphetamine

> <SYNONYMS>
(+/-)-MDE; 3,4-methylenedioxy-N-ethylamphetamine; MDE; n-ethyl MDA

$$$$
1567
  Mrv0541 02231215342D          

 21 23  0  0  0  0            999 V2000
    2.8171   -2.3592    0.0000 Cl  0  0  0  0  0  0  0  0  0  0  0  0
    3.8785   -1.4649    0.0000 F   0  0  0  0  0  0  0  0  0  0  0  0
    2.6107    2.3592    0.0000 O   0  0  0  0  0  0  0  0  0  0  0  0
    2.4542    0.9709    0.0000 N   0  0  0  0  0  0  0  0  0  0  0  0
    4.3080    0.9709    0.0000 N   0  0  0  0  0  0  0  0  0  0  0  0
    3.3811   -0.1914    0.0000 C   0  0  0  0  0  0  0  0  0  0  0  0
    2.6378    0.1666    0.0000 C   0  0  0  0  0  0  0  0  0  0  0  0
    4.1244    0.1666    0.0000 C   0  0  0  0  0  0  0  0  0  0  0  0
    3.7936    1.6159    0.0000 C   0  0  0  0  0  0  0  0  0  0  0  0
    4.7694   -0.3478    0.0000 C   0  0  0  0  0  0  0  0  0  0  0  0
    2.9686    1.6159    0.0000 C   0  0  0  0  0  0  0  0  0  0  0  0
    3.4586   -1.0472    0.0000 C   0  0  0  0  0  0  0  0  0  0  0  0
    1.9205   -0.3065    0.0000 C   0  0  0  0  0  0  0  0  0  0  0  0
    1.6500    1.1545    0.0000 C   0  0  0  0  0  0  0  0  0  0  0  0
    2.7523   -1.5367    0.0000 C   0  0  0  0  0  0  0  0  0  0  0  0
    1.9781   -1.1639    0.0000 C   0  0  0  0  0  0  0  0  0  0  0  0
    4.6465   -1.1636    0.0000 C   0  0  0  0  0  0  0  0  0  0  0  0
    5.5374   -0.0464    0.0000 C   0  0  0  0  0  0  0  0  0  0  0  0
    5.2914   -1.6779    0.0000 C   0  0  0  0  0  0  0  0  0  0  0  0
    6.1823   -0.5607    0.0000 C   0  0  0  0  0  0  0  0  0  0  0  0
    6.0594   -1.3765    0.0000 C   0  0  0  0  0  0  0  0  0  0  0  0
  1 15  1  0  0  0  0
  2 17  1  0  0  0  0
  3 11  2  0  0  0  0
  4  7  1  0  0  0  0
  4 11  1  0  0  0  0
  4 14  1  0  0  0  0
  5  8  2  0  0  0  0
  5  9  1  0  0  0  0
  6  7  2  0  0  0  0
  6  8  1  0  0  0  0
  6 12  1  0  0  0  0
  7 13  1  0  0  0  0
  8 10  1  0  0  0  0
  9 11  1  0  0  0  0
 10 17  1  0  0  0  0
 10 18  2  0  0  0  0
 12 15  2  0  0  0  0
 13 16  2  0  0  0  0
 15 16  1  0  0  0  0
 17 19  2  0  0  0  0
 18 20  1  0  0  0  0
 19 21  1  0  0  0  0
 20 21  2  0  0  0  0
M  END
> <DATABASE_ID>
DB01567

> <DATABASE_NAME>
drugbank

> <SMILES>
CN1C2=C(C=C(Cl)C=C2)C(=NCC1=O)C1=CC=CC=C1F

> <INCHI_IDENTIFIER>
InChI=1S/C16H12ClFN2O/c1-20-14-7-6-10(17)8-12(14)16(19-9-15(20)21)11-4-2-3-5-13(11)18/h2-8H,9H2,1H3

> <INCHI_KEY>
ROYOYTLGDLIGBX-UHFFFAOYSA-N

> <FORMULA>
C16H12ClFN2O

> <MOLECULAR_WEIGHT>
302.731

> <EXACT_MASS>
302.062218928

> <JCHEM_ACCEPTOR_COUNT>
2

> <JCHEM_AVERAGE_POLARIZABILITY>
29.45257506451923

> <JCHEM_BIOAVAILABILITY>
1

> <JCHEM_DONOR_COUNT>
0

> <JCHEM_FORMAL_CHARGE>
0

> <JCHEM_GHOSE_FILTER>
1

> <JCHEM_IUPAC>
7-chloro-5-(2-fluorophenyl)-1-methyl-2,3-dihydro-1H-1,4-benzodiazepin-2-one

> <ALOGPS_LOGP>
2.83

> <JCHEM_LOGP>
3.218788503666667

> <ALOGPS_LOGS>
-4.32

> <JCHEM_MDDR_LIKE_RULE>
0

> <JCHEM_NUMBER_OF_RINGS>
3

> <JCHEM_PHYSIOLOGICAL_CHARGE>
0

> <JCHEM_PKA_STRONGEST_BASIC>
1.8889263261678797

> <JCHEM_POLAR_SURFACE_AREA>
32.67

> <JCHEM_REFRACTIVITY>
80.02830000000003

> <JCHEM_ROTATABLE_BOND_COUNT>
1

> <JCHEM_RULE_OF_FIVE>
1

> <ALOGPS_SOLUBILITY>
1.44e-02 g/l

> <JCHEM_TRADITIONAL_IUPAC>
fludiazepam

> <JCHEM_VEBER_RULE>
1

> <DRUGBANK_ID>
DB01567

> <DRUG_GROUPS>
experimental; illicit

> <GENERIC_NAME>
Fludiazepam

> <SYNONYMS>
7-chloro-5-(o-Fluorophenyl)-1,3-dihydro-1-methyl-2H-1,4-benzodiazepin-2-one; Fludiazepam; Fludiazepamum

> <INTERNATIONAL_BRANDS>
Erispan

$$$$
1568
  Mrv0541 02231215342D          

 26 30  0  0  1  0            999 V2000
    1.9356   -0.1190    0.0000 O   0  0  0  0  0  0  0  0  0  0  0  0
    5.5383   -1.8353    0.0000 O   0  5  0  0  0  0  0  0  0  0  0  0
    1.7349   -2.2486    0.0000 O   0  0  0  0  0  0  0  0  0  0  0  0
    1.7349    1.9190    0.0000 O   0  0  0  0  0  0  0  0  0  0  0  0
    5.3440   -0.9899    0.0000 N   0  3  2  0  0  0  0  0  0  0  0  0
    3.2006   -0.5773    0.0000 C   0  0  1  0  0  0  0  0  0  0  0  0
    3.9151   -0.9899    0.0000 C   0  0  2  0  0  0  0  0  0  0  0  0
    4.6296   -0.5773    0.0000 C   0  0  1  0  0  0  0  0  0  0  0  0
    2.4861   -0.9899    0.0000 C   0  0  2  0  0  0  0  0  0  0  0  0
    3.6773    0.0277    0.0000 C   0  0  0  0  0  0  0  0  0  0  0  0
    3.2006    0.2477    0.0000 C   0  0  0  0  0  0  0  0  0  0  0  0
    4.8506    0.0277    0.0000 C   0  0  0  0  0  0  0  0  0  0  0  0
    4.6296    0.2477    0.0000 C   0  0  0  0  0  0  0  0  0  0  0  0
    3.9151    0.6602    0.0000 C   0  0  0  0  0  0  0  0  0  0  0  0
    2.4861   -1.8149    0.0000 C   0  0  2  0  0  0  0  0  0  0  0  0
    3.9151   -1.8149    0.0000 C   0  0  0  0  0  0  0  0  0  0  0  0
    2.4861    0.6602    0.0000 C   0  0  0  0  0  0  0  0  0  0  0  0
    3.2006   -2.2274    0.0000 C   0  0  0  0  0  0  0  0  0  0  0  0
    6.1733   -1.2444    0.0000 C   0  0  0  0  0  0  0  0  0  0  0  0
    3.9151    1.4852    0.0000 C   0  0  0  0  0  0  0  0  0  0  0  0
    2.4861    1.4852    0.0000 C   0  0  0  0  0  0  0  0  0  0  0  0
    3.2006    1.8977    0.0000 C   0  0  0  0  0  0  0  0  0  0  0  0
    1.7349    2.7864    0.0000 C   0  0  0  0  0  0  0  0  0  0  0  0
    4.3612   -1.5214    0.0000 H   0  0  0  0  0  0  0  0  0  0  0  0
    4.8675   -1.2293    0.0000 H   0  0  0  0  0  0  0  0  0  0  0  0
    1.8196   -1.1829    0.0000 H   0  0  0  0  0  0  0  0  0  0  0  0
  1  9  1  0  0  0  0
  1 17  1  0  0  0  0
  5  2  1  6  0  0  0
 15  3  1  6  0  0  0
  4 21  1  0  0  0  0
  4 23  1  0  0  0  0
  5  8  1  0  0  0  0
  5 12  1  0  0  0  0
  5 19  1  0  0  0  0
  6  7  1  0  0  0  0
  6  9  1  0  0  0  0
  6 10  1  1  0  0  0
  6 11  1  0  0  0  0
  7  8  1  0  0  0  0
  7 16  1  0  0  0  0
  7 24  1  1  0  0  0
  8 13  1  0  0  0  0
  8 25  1  6  0  0  0
  9 15  1  0  0  0  0
  9 26  1  1  0  0  0
 10 12  1  0  0  0  0
 11 14  2  0  0  0  0
 11 17  1  0  0  0  0
 13 14  1  0  0  0  0
 14 20  1  0  0  0  0
 15 18  1  0  0  0  0
 16 18  2  0  0  0  0
 17 21  2  0  0  0  0
 20 22  2  0  0  0  0
 21 22  1  0  0  0  0
M  CHG  2   2  -1   5   1
M  END
> <DATABASE_ID>
DB01568

> <DATABASE_NAME>
drugbank

> <SMILES>
[H][C@@]12OC3=C(OC)C=CC4=C3[C@@]11CC[N@+](C)([O-])[C@]([H])(C4)[C@]1([H])C=C[C@@H]2O

> <INCHI_IDENTIFIER>
InChI=1S/C18H21NO4/c1-19(21)8-7-18-11-4-5-13(20)17(18)23-16-14(22-2)6-3-10(15(16)18)9-12(11)19/h3-6,11-13,17,20H,7-9H2,1-2H3/t11-,12+,13-,17-,18-,19-/m0/s1

> <INCHI_KEY>
BDLSDHWCOJPHIE-KFUGMXNISA-N

> <FORMULA>
C18H21NO4

> <MOLECULAR_WEIGHT>
315.3636

> <EXACT_MASS>
315.147058165

> <JCHEM_ACCEPTOR_COUNT>
4

> <JCHEM_AVERAGE_POLARIZABILITY>
32.51446378274151

> <JCHEM_BIOAVAILABILITY>
1

> <JCHEM_DONOR_COUNT>
1

> <JCHEM_FORMAL_CHARGE>
0

> <JCHEM_GHOSE_FILTER>
1

> <JCHEM_IUPAC>
(1S,4S,5R,13R,14S,17R)-14-hydroxy-10-methoxy-4-methyl-12-oxa-4-azapentacyclo[9.6.1.0¹,¹³.0⁵,¹⁷.0⁷,¹⁸]octadeca-7(18),8,10,15-tetraen-4-ium-4-olate

> <ALOGPS_LOGP>
-0.48

> <JCHEM_LOGP>
0.2185760996666672

> <ALOGPS_LOGS>
-3.36

> <JCHEM_MDDR_LIKE_RULE>
0

> <JCHEM_NUMBER_OF_RINGS>
5

> <JCHEM_PHYSIOLOGICAL_CHARGE>
0

> <JCHEM_PKA_STRONGEST_ACIDIC>
13.78246759479445

> <JCHEM_PKA_STRONGEST_BASIC>
2.749304125830024

> <JCHEM_POLAR_SURFACE_AREA>
65.57000000000001

> <JCHEM_REFRACTIVITY>
86.64960000000002

> <JCHEM_ROTATABLE_BOND_COUNT>
1

> <JCHEM_RULE_OF_FIVE>
1

> <ALOGPS_SOLUBILITY>
1.38e-01 g/l

> <JCHEM_TRADITIONAL_IUPAC>
codeine-N-oxide

> <JCHEM_VEBER_RULE>
0

> <DRUGBANK_ID>
DB01568

> <DRUG_GROUPS>
experimental; illicit

> <GENERIC_NAME>
Codeine-N-oxide

$$$$
1569
  Mrv1909 08181917162D          

 28 31  0  0  1  0            999 V2000
   -0.3562    0.2046    0.0000 C   0  0  0  0  0  0  0  0  0  0  0  0
   -0.3562   -0.6204    0.0000 C   0  0  1  0  0  0  0  0  0  0  0  0
    0.3583   -0.2047    0.0000 C   0  0  2  0  0  0  0  0  0  0  0  0
   -0.3562   -1.4515    0.0000 C   0  0  0  0  0  0  0  0  0  0  0  0
   -1.0687   -0.2047    0.0000 C   0  0  0  0  0  0  0  0  0  0  0  0
    1.0708   -0.6204    0.0000 C   0  0  2  0  0  0  0  0  0  0  0  0
    0.3583    0.6264    0.0000 C   0  0  2  0  0  0  0  0  0  0  0  0
    0.3583   -1.8672    0.0000 C   0  0  0  0  0  0  0  0  0  0  0  0
   -1.0687   -1.8672    0.0000 C   0  0  0  0  0  0  0  0  0  0  0  0
   -1.7812   -0.6204    0.0000 C   0  0  0  0  0  0  0  0  0  0  0  0
    1.7833   -0.2047    0.0000 C   0  0  1  0  0  0  0  0  0  0  0  0
    1.0708   -1.4515    0.0000 C   0  0  0  0  0  0  0  0  0  0  0  0
   -0.3583    1.0400    0.0000 O   0  0  0  0  0  0  0  0  0  0  0  0
    1.0708    1.0420    0.0000 C   0  0  0  0  0  0  0  0  0  0  0  0
   -1.7812   -1.4515    0.0000 C   0  0  0  0  0  0  0  0  0  0  0  0
   -2.4958   -0.2088    0.0000 C   0  0  0  0  0  0  0  0  0  0  0  0
    1.7833    0.6264    0.0000 C   0  0  1  0  0  0  0  0  0  0  0  0
    3.2083   -0.2047    0.0000 C   0  0  0  0  0  0  0  0  0  0  0  0
   -2.4958   -1.8651    0.0000 O   0  0  0  0  0  0  0  0  0  0  0  0
   -3.2103   -0.6204    0.0000 O   0  0  0  0  0  0  0  0  0  0  0  0
    1.7833    1.4515    0.0000 C   0  0  0  0  0  0  0  0  0  0  0  0
    2.4958    1.0420    0.0000 C   0  0  1  0  0  0  0  0  0  0  0  0
    3.2083    0.6264    0.0000 C   0  0  0  0  0  0  0  0  0  0  0  0
    3.2103    1.4557    0.0000 C   0  0  0  0  0  0  0  0  0  0  0  0
    2.4958    1.8672    0.0000 O   0  0  0  0  0  0  0  0  0  0  0  0
    1.0708    0.2046    0.0000 H   0  0  0  0  0  0  0  0  0  0  0  0
    0.3583   -1.0298    0.0000 H   0  0  0  0  0  0  0  0  0  0  0  0
    1.7833   -1.0298    0.0000 H   0  0  0  0  0  0  0  0  0  0  0  0
  2  1  1  1  0  0  0
  3  2  1  0  0  0  0
  2  4  1  0  0  0  0
  2  5  1  0  0  0  0
  6  3  1  0  0  0  0
  3  7  1  0  0  0  0
  3 27  1  6  0  0  0
  4  8  1  0  0  0  0
  4  9  2  0  0  0  0
  5 10  2  0  0  0  0
 11  6  1  0  0  0  0
  6 12  1  0  0  0  0
  6 26  1  1  0  0  0
  7 13  1  6  0  0  0
  7 14  1  0  0  0  0
  8 12  1  0  0  0  0
  9 15  1  0  0  0  0
 10 15  1  0  0  0  0
 10 16  1  0  0  0  0
 11 17  1  0  0  0  0
 11 18  1  0  0  0  0
 11 28  1  6  0  0  0
 17 14  1  0  0  0  0
 15 19  2  0  0  0  0
 16 20  2  0  0  0  0
 17 21  1  1  0  0  0
 17 22  1  0  0  0  0
 18 23  1  0  0  0  0
 22 23  1  0  0  0  0
 22 24  1  6  0  0  0
 22 25  1  1  0  0  0
M  END
> <DATABASE_ID>
DB01569

> <DATABASE_NAME>
drugbank

> <SMILES>
[H][C@@]12CC[C@](C)(O)[C@@]1(C)C[C@@H](O)[C@@]1([H])[C@@]2([H])CCC2=CC(=O)C(C=O)=C[C@]12C

> <INCHI_IDENTIFIER>
InChI=1S/C21H28O4/c1-19-9-12(11-22)16(23)8-13(19)4-5-14-15-6-7-21(3,25)20(15,2)10-17(24)18(14)19/h8-9,11,14-15,17-18,24-25H,4-7,10H2,1-3H3/t14-,15-,17+,18+,19-,20-,21-/m0/s1

> <INCHI_KEY>
AMVODTGMYSRMNP-GNIMZFFESA-N

> <FORMULA>
C21H28O4

> <MOLECULAR_WEIGHT>
344.4446

> <EXACT_MASS>
344.198759384

> <JCHEM_ACCEPTOR_COUNT>
4

> <JCHEM_ATOM_COUNT>
53

> <JCHEM_AVERAGE_POLARIZABILITY>
38.12579444380454

> <JCHEM_BIOAVAILABILITY>
1

> <JCHEM_DONOR_COUNT>
2

> <JCHEM_FORMAL_CHARGE>
0

> <JCHEM_GHOSE_FILTER>
1

> <JCHEM_IUPAC>
(1S,3aS,3bS,9aR,9bS,10R,11aS)-1,10-dihydroxy-1,9a,11a-trimethyl-7-oxo-1H,2H,3H,3aH,3bH,4H,5H,7H,9aH,9bH,10H,11H,11aH-cyclopenta[a]phenanthrene-8-carbaldehyde

> <ALOGPS_LOGP>
2.59

> <JCHEM_LOGP>
1.7636854946666674

> <ALOGPS_LOGS>
-3.76

> <JCHEM_MDDR_LIKE_RULE>
0

> <JCHEM_NUMBER_OF_RINGS>
4

> <JCHEM_PHYSIOLOGICAL_CHARGE>
0

> <JCHEM_PKA>
15.057423587940171

> <JCHEM_PKA_STRONGEST_ACIDIC>
14.39254855721346

> <JCHEM_PKA_STRONGEST_BASIC>
-2.8510091417772525

> <JCHEM_POLAR_SURFACE_AREA>
74.6

> <JCHEM_REFRACTIVITY>
96.90269999999998

> <JCHEM_ROTATABLE_BOND_COUNT>
1

> <JCHEM_RULE_OF_FIVE>
1

> <ALOGPS_SOLUBILITY>
6.05e-02 g/l

> <JCHEM_TRADITIONAL_IUPAC>
amorolfine hydrochloride

> <JCHEM_VEBER_RULE>
0

> <DRUGBANK_ID>
DB01569

> <DRUG_GROUPS>
experimental; illicit

> <GENERIC_NAME>
Formebolone

> <SYNONYMS>
11-alpha,17-beta-Dihydroxy-17-methyl-3-oxoandrosta-1,4-diene-2-carboxaldehyde; 2-Formyl-11-alpha-hydroxy-delta(sup 1)-methyltestosterone; 2-formyl-11α-hydroxy-17α-methyl-δ1-testosterone; 2-Formyl-17-alpha-methylandrosta-1,4-diene-11-alpha,17-beta-diol-3-one; Esiclene; Formebolona; Formebolonum; Formyldienolone

> <INTERNATIONAL_BRANDS>
Esiclene; Hubernol; Metanor

$$$$
1570
  Mrv0541 02231215342D          

 27 29  0  0  1  0            999 V2000
    2.0930   -1.0313    0.0000 O   0  0  0  0  0  0  0  0  0  0  0  0
    2.0930    2.2688    0.0000 O   0  0  0  0  0  0  0  0  0  0  0  0
    3.5220   -0.2063    0.0000 N   0  0  0  0  0  0  0  0  0  0  0  0
    3.5220    2.2688    0.0000 N   0  0  0  0  0  0  0  0  0  0  0  0
    3.5220    1.4438    0.0000 C   0  0  0  0  0  0  0  0  0  0  0  0
    2.8075    1.0313    0.0000 C   0  0  0  0  0  0  0  0  0  0  0  0
    4.2365    1.0313    0.0000 C   0  0  0  0  0  0  0  0  0  0  0  0
    2.8075    0.2063    0.0000 C   0  0  0  0  0  0  0  0  0  0  0  0
    4.2365    0.2063    0.0000 C   0  0  0  0  0  0  0  0  0  0  0  0
    2.0930    1.4438    0.0000 C   0  0  0  0  0  0  0  0  0  0  0  0
    3.5220   -1.0313    0.0000 C   0  0  0  0  0  0  0  0  0  0  0  0
    2.8075   -1.4438    0.0000 C   0  0  0  0  0  0  0  0  0  0  0  0
    4.2365    2.6813    0.0000 C   0  0  0  0  0  0  0  0  0  0  0  0
    2.8075    2.6813    0.0000 C   0  0  0  0  0  0  0  0  0  0  0  0
    2.8075   -2.2688    0.0000 C   0  0  0  0  0  0  0  0  0  0  0  0
    2.8075    3.5063    0.0000 C   0  0  0  0  0  0  0  0  0  0  0  0
    4.2365    3.5063    0.0000 C   0  0  0  0  0  0  0  0  0  0  0  0
    4.9509    2.2688    0.0000 C   0  0  0  0  0  0  0  0  0  0  0  0
    2.0930    3.9188    0.0000 C   0  0  0  0  0  0  0  0  0  0  0  0
    3.5220   -2.6813    0.0000 C   0  0  0  0  0  0  0  0  0  0  0  0
    2.0930   -2.6813    0.0000 C   0  0  0  0  0  0  0  0  0  0  0  0
    4.9509    3.9188    0.0000 C   0  0  0  0  0  0  0  0  0  0  0  0
    5.6655    2.6813    0.0000 C   0  0  0  0  0  0  0  0  0  0  0  0
    5.6655    3.5063    0.0000 C   0  0  0  0  0  0  0  0  0  0  0  0
    3.5220   -3.5063    0.0000 C   0  0  0  0  0  0  0  0  0  0  0  0
    2.0930   -3.5063    0.0000 C   0  0  0  0  0  0  0  0  0  0  0  0
    2.8075   -3.9188    0.0000 C   0  0  0  0  0  0  0  0  0  0  0  0
  1 12  1  0  0  0  0
  2 14  2  0  0  0  0
  3  8  1  0  0  0  0
  3  9  1  0  0  0  0
  3 11  1  0  0  0  0
  4  5  1  0  0  0  0
  4 13  1  0  0  0  0
  4 14  1  0  0  0  0
  5  6  1  0  0  0  0
  5  7  1  0  0  0  0
  6  8  1  0  0  0  0
  6 10  1  0  0  0  0
  7  9  1  0  0  0  0
 11 12  1  0  0  0  0
 12 15  1  0  0  0  0
 13 17  2  0  0  0  0
 13 18  1  0  0  0  0
 14 16  1  0  0  0  0
 15 20  2  0  0  0  0
 15 21  1  0  0  0  0
 16 19  1  0  0  0  0
 17 22  1  0  0  0  0
 18 23  2  0  0  0  0
 20 25  1  0  0  0  0
 21 26  2  0  0  0  0
 22 24  2  0  0  0  0
 23 24  1  0  0  0  0
 25 27  2  0  0  0  0
 26 27  1  0  0  0  0
M  END
> <DATABASE_ID>
DB01570

> <DATABASE_NAME>
drugbank

> <SMILES>
CCC(=O)N(C1CCN(CC(O)C2=CC=CC=C2)CC1C)C1=CC=CC=C1

> <INCHI_IDENTIFIER>
InChI=1S/C23H30N2O2/c1-3-23(27)25(20-12-8-5-9-13-20)21-14-15-24(16-18(21)2)17-22(26)19-10-6-4-7-11-19/h4-13,18,21-22,26H,3,14-17H2,1-2H3

> <INCHI_KEY>
FRPRNNRJTCONEC-UHFFFAOYSA-N

> <FORMULA>
C23H30N2O2

> <MOLECULAR_WEIGHT>
366.4965

> <EXACT_MASS>
366.230728214

> <JCHEM_ACCEPTOR_COUNT>
3

> <JCHEM_AVERAGE_POLARIZABILITY>
41.14490208355492

> <JCHEM_BIOAVAILABILITY>
1

> <JCHEM_DONOR_COUNT>
1

> <JCHEM_FORMAL_CHARGE>
0

> <JCHEM_GHOSE_FILTER>
1

> <JCHEM_IUPAC>
N-[1-(2-hydroxy-2-phenylethyl)-3-methylpiperidin-4-yl]-N-phenylpropanamide

> <ALOGPS_LOGP>
3.12

> <JCHEM_LOGP>
3.3758259606666647

> <ALOGPS_LOGS>
-3.63

> <JCHEM_MDDR_LIKE_RULE>
1

> <JCHEM_NUMBER_OF_RINGS>
3

> <JCHEM_PHYSIOLOGICAL_CHARGE>
1

> <JCHEM_PKA_STRONGEST_ACIDIC>
14.111603402074987

> <JCHEM_PKA_STRONGEST_BASIC>
8.594291996619226

> <JCHEM_POLAR_SURFACE_AREA>
43.78

> <JCHEM_REFRACTIVITY>
109.10640000000004

> <JCHEM_ROTATABLE_BOND_COUNT>
6

> <JCHEM_RULE_OF_FIVE>
1

> <ALOGPS_SOLUBILITY>
8.65e-02 g/l

> <JCHEM_TRADITIONAL_IUPAC>
β-hydroxy-3-methylfentanyl

> <JCHEM_VEBER_RULE>
0

> <DRUGBANK_ID>
DB01570

> <DRUG_GROUPS>
illicit

> <GENERIC_NAME>
Ohmefentanyl

> <SYNONYMS>
Beta-hydroxy-3-methylfentanyl; OMF; β-hydroxy-3-methylfentanyl

$$$$
1571
  Mrv0541 02231215342D          

 26 28  0  0  1  0            999 V2000
    1.6500    2.2688    0.0000 O   0  0  0  0  0  0  0  0  0  0  0  0
    3.0791   -0.2063    0.0000 N   0  0  0  0  0  0  0  0  0  0  0  0
    3.0791    2.2688    0.0000 N   0  0  0  0  0  0  0  0  0  0  0  0
    3.0791    1.4438    0.0000 C   0  0  0  0  0  0  0  0  0  0  0  0
    2.3645    1.0313    0.0000 C   0  0  0  0  0  0  0  0  0  0  0  0
    3.7935    1.0313    0.0000 C   0  0  0  0  0  0  0  0  0  0  0  0
    2.3645    0.2063    0.0000 C   0  0  0  0  0  0  0  0  0  0  0  0
    3.7935    0.2063    0.0000 C   0  0  0  0  0  0  0  0  0  0  0  0
    1.6500    1.4438    0.0000 C   0  0  0  0  0  0  0  0  0  0  0  0
    3.0791   -1.0313    0.0000 C   0  0  0  0  0  0  0  0  0  0  0  0
    2.3645   -1.4438    0.0000 C   0  0  0  0  0  0  0  0  0  0  0  0
    3.7935    2.6813    0.0000 C   0  0  0  0  0  0  0  0  0  0  0  0
    2.3645    2.6813    0.0000 C   0  0  0  0  0  0  0  0  0  0  0  0
    2.3645    3.5063    0.0000 C   0  0  0  0  0  0  0  0  0  0  0  0
    2.3645   -2.2688    0.0000 C   0  0  0  0  0  0  0  0  0  0  0  0
    3.7935    3.5063    0.0000 C   0  0  0  0  0  0  0  0  0  0  0  0
    4.5080    2.2688    0.0000 C   0  0  0  0  0  0  0  0  0  0  0  0
    1.6500    3.9188    0.0000 C   0  0  0  0  0  0  0  0  0  0  0  0
    4.5080    3.9188    0.0000 C   0  0  0  0  0  0  0  0  0  0  0  0
    5.2224    2.6813    0.0000 C   0  0  0  0  0  0  0  0  0  0  0  0
    3.0791   -2.6813    0.0000 C   0  0  0  0  0  0  0  0  0  0  0  0
    1.6500   -2.6813    0.0000 C   0  0  0  0  0  0  0  0  0  0  0  0
    5.2224    3.5063    0.0000 C   0  0  0  0  0  0  0  0  0  0  0  0
    3.0791   -3.5063    0.0000 C   0  0  0  0  0  0  0  0  0  0  0  0
    1.6500   -3.5063    0.0000 C   0  0  0  0  0  0  0  0  0  0  0  0
    2.3645   -3.9188    0.0000 C   0  0  0  0  0  0  0  0  0  0  0  0
  1 13  2  0  0  0  0
  2  7  1  0  0  0  0
  2  8  1  0  0  0  0
  2 10  1  0  0  0  0
  3  4  1  0  0  0  0
  3 12  1  0  0  0  0
  3 13  1  0  0  0  0
  4  5  1  0  0  0  0
  4  6  1  0  0  0  0
  5  7  1  0  0  0  0
  5  9  1  0  0  0  0
  6  8  1  0  0  0  0
 10 11  1  0  0  0  0
 11 15  1  0  0  0  0
 12 16  2  0  0  0  0
 12 17  1  0  0  0  0
 13 14  1  0  0  0  0
 14 18  1  0  0  0  0
 15 21  2  0  0  0  0
 15 22  1  0  0  0  0
 16 19  1  0  0  0  0
 17 20  2  0  0  0  0
 19 23  2  0  0  0  0
 20 23  1  0  0  0  0
 21 24  1  0  0  0  0
 22 25  2  0  0  0  0
 24 26  2  0  0  0  0
 25 26  1  0  0  0  0
M  END
> <DATABASE_ID>
DB01571

> <DATABASE_NAME>
drugbank

> <SMILES>
CCC(=O)N(C1CCN(CCC2=CC=CC=C2)CC1C)C1=CC=CC=C1

> <INCHI_IDENTIFIER>
InChI=1S/C23H30N2O/c1-3-23(26)25(21-12-8-5-9-13-21)22-15-17-24(18-19(22)2)16-14-20-10-6-4-7-11-20/h4-13,19,22H,3,14-18H2,1-2H3

> <INCHI_KEY>
MLQRZXNZHAOCHQ-UHFFFAOYSA-N

> <FORMULA>
C23H30N2O

> <MOLECULAR_WEIGHT>
350.4971

> <EXACT_MASS>
350.235813592

> <JCHEM_ACCEPTOR_COUNT>
2

> <JCHEM_AVERAGE_POLARIZABILITY>
41.642014395590074

> <JCHEM_BIOAVAILABILITY>
1

> <JCHEM_DONOR_COUNT>
0

> <JCHEM_FORMAL_CHARGE>
0

> <JCHEM_GHOSE_FILTER>
1

> <JCHEM_IUPAC>
N-[3-methyl-1-(2-phenylethyl)piperidin-4-yl]-N-phenylpropanamide

> <ALOGPS_LOGP>
4.29

> <JCHEM_LOGP>
4.294822107666667

> <ALOGPS_LOGS>
-4.37

> <JCHEM_MDDR_LIKE_RULE>
1

> <JCHEM_NUMBER_OF_RINGS>
3

> <JCHEM_PHYSIOLOGICAL_CHARGE>
1

> <JCHEM_PKA_STRONGEST_BASIC>
9.082512080964243

> <JCHEM_POLAR_SURFACE_AREA>
23.550000000000004

> <JCHEM_REFRACTIVITY>
107.89890000000004

> <JCHEM_ROTATABLE_BOND_COUNT>
6

> <JCHEM_RULE_OF_FIVE>
1

> <ALOGPS_SOLUBILITY>
1.50e-02 g/l

> <JCHEM_TRADITIONAL_IUPAC>
3-methylfentanyl

> <JCHEM_VEBER_RULE>
1

> <DRUGBANK_ID>
DB01571

> <DRUG_GROUPS>
illicit

> <GENERIC_NAME>
3-Methylfentanyl

> <SYNONYMS>
3-MF; mefentanyl

$$$$

  Mrv1718001121815192D          

 26 29  0  0  0  0            999 V2000
    2.9514    1.6015    0.0000 O   0  0  0  0  0  0  0  0  0  0  0  0
   -2.9514   -1.6524    0.0000 O   0  0  0  0  0  0  0  0  0  0  0  0
    1.4995    0.8628    0.0000 C   0  0  1  0  0  0  0  0  0  0  0  0
    1.4995    0.0413    0.0000 C   0  0  2  0  0  0  0  0  0  0  0  0
    0.7863   -0.3725    0.0000 C   0  0  1  0  0  0  0  0  0  0  0  0
    0.0732    0.0413    0.0000 C   0  0  1  0  0  0  0  0  0  0  0  0
   -0.6781   -0.3789    0.0000 C   0  0  1  0  0  0  0  0  0  0  0  0
    2.2828    1.1175    0.0000 C   0  0  2  0  0  0  0  0  0  0  0  0
    0.7863    1.2767    0.0000 C   0  0  0  0  0  0  0  0  0  0  0  0
    0.0732    0.8628    0.0000 C   0  0  0  0  0  0  0  0  0  0  0  0
    2.2828   -0.2133    0.0000 C   0  0  0  0  0  0  0  0  0  0  0  0
    0.7991   -1.2321    0.0000 C   0  0  0  0  0  0  0  0  0  0  0  0
   -0.6845   -1.2385    0.0000 C   0  0  1  0  0  0  0  0  0  0  0  0
    2.7603    0.4489    0.0000 C   0  0  0  0  0  0  0  0  0  0  0  0
    0.0541   -1.6715    0.0000 C   0  0  0  0  0  0  0  0  0  0  0  0
    1.4995    1.6906    0.0000 C   0  0  0  0  0  0  0  0  0  0  0  0
   -0.6717    0.4489    0.0000 C   0  0  0  0  0  0  0  0  0  0  0  0
    2.0280    1.9007    0.0000 C   0  0  0  0  0  0  0  0  0  0  0  0
   -1.4486    0.0859    0.0000 C   0  0  0  0  0  0  0  0  0  0  0  0
   -1.4613   -1.6906    0.0000 C   0  0  0  0  0  0  0  0  0  0  0  0
   -2.2255   -0.3469    0.0000 C   0  0  0  0  0  0  0  0  0  0  0  0
   -2.2382   -1.2448    0.0000 C   0  0  0  0  0  0  0  0  0  0  0  0
    1.5695   -0.6144    0.0000 H   0  0  0  0  0  0  0  0  0  0  0  0
    1.3595   -0.6972    0.0000 H   0  0  0  0  0  0  0  0  0  0  0  0
    0.6400    0.3660    0.0000 H   0  0  0  0  0  0  0  0  0  0  0  0
   -0.6845   -1.9007    0.0000 H   0  0  0  0  0  0  0  0  0  0  0  0
  8  1  1  1  0  0  0
  2 22  2  0  0  0  0
  3  4  1  0  0  0  0
  3  8  1  0  0  0  0
  3  9  1  0  0  0  0
  3 16  1  1  0  0  0
  4  5  1  0  0  0  0
  4 11  1  0  0  0  0
  4 23  1  6  0  0  0
  5  6  1  0  0  0  0
  5 12  1  0  0  0  0
  5 24  1  1  0  0  0
  6  7  1  0  0  0  0
  6 10  1  0  0  0  0
  6 25  1  6  0  0  0
  7 13  1  0  0  0  0
  7 17  1  1  0  0  0
  7 19  1  0  0  0  0
  8 14  1  0  0  0  0
  8 18  1  0  0  0  0
  9 10  1  0  0  0  0
 11 14  1  0  0  0  0
 12 15  1  0  0  0  0
 13 15  1  0  0  0  0
 13 20  1  0  0  0  0
 13 26  1  6  0  0  0
 19 21  2  0  0  0  0
 20 22  1  0  0  0  0
 21 22  1  0  0  0  0
M  END
> <DATABASE_ID>
DB01572

> <DATABASE_NAME>
drugbank

> <SMILES>
[H][C@@]12CC[C@](C)(O)[C@@]1(C)CC[C@@]1([H])[C@@]2([H])CC[C@@]2([H])CC(=O)C=C[C@]12C

> <INCHI_IDENTIFIER>
InChI=1S/C20H30O2/c1-18-9-6-14(21)12-13(18)4-5-15-16(18)7-10-19(2)17(15)8-11-20(19,3)22/h6,9,13,15-17,22H,4-5,7-8,10-12H2,1-3H3/t13-,15+,16-,17-,18-,19-,20-/m0/s1

> <INCHI_KEY>
JRNSSSJKIGAFCT-YDSAWKJFSA-N

> <FORMULA>
C20H30O2

> <MOLECULAR_WEIGHT>
302.458

> <EXACT_MASS>
302.224580206

> <JCHEM_ACCEPTOR_COUNT>
2

> <JCHEM_ATOM_COUNT>
52

> <JCHEM_AVERAGE_POLARIZABILITY>
35.72707369181495

> <JCHEM_BIOAVAILABILITY>
1

> <JCHEM_DONOR_COUNT>
1

> <JCHEM_FORMAL_CHARGE>
0

> <JCHEM_GHOSE_FILTER>
1

> <JCHEM_IUPAC>
(1S,3aS,3bR,5aS,9aR,9bS,11aS)-1-hydroxy-1,9a,11a-trimethyl-1H,2H,3H,3aH,3bH,4H,5H,5aH,6H,7H,9aH,9bH,10H,11H,11aH-cyclopenta[a]phenanthren-7-one

> <ALOGPS_LOGP>
3.79

> <JCHEM_LOGP>
3.6896577906666677

> <ALOGPS_LOGS>
-4.88

> <JCHEM_MDDR_LIKE_RULE>
0

> <JCHEM_NUMBER_OF_RINGS>
4

> <JCHEM_PHYSIOLOGICAL_CHARGE>
0

> <JCHEM_PKA_STRONGEST_BASIC>
-0.5280733046100229

> <JCHEM_POLAR_SURFACE_AREA>
37.3

> <JCHEM_REFRACTIVITY>
89.3346

> <JCHEM_ROTATABLE_BOND_COUNT>
0

> <JCHEM_RULE_OF_FIVE>
1

> <ALOGPS_SOLUBILITY>
4.01e-03 g/l

> <JCHEM_TRADITIONAL_IUPAC>
methyl-1-testosterone

> <JCHEM_VEBER_RULE>
1

> <DRUGBANK_ID>
DB01572

> <DRUG_GROUPS>
experimental; illicit

> <GENERIC_NAME>
Methyl-1-testosterone

> <SYNONYMS>
(+)-Methyl-1-testosterone; (5α,17β)-17-Hydroxy-17-methylandrost-1-en-3-one; 17alpha-Methyl-17beta-hydroxy-5alpha-androst-1-en-3-one; 17alpha-Methyl-17beta-hydroxy-delta1-5alpha-androsten-3-one; 17beta-Hydroxy-17alpha-methyl-5alpha-androst-1-ene-3-one

$$$$
1573
  Mrv0541 02231215342D          

 31 36  0  0  1  0            999 V2000
    4.1891   -0.9864    0.0000 O   0  0  0  0  0  0  0  0  0  0  0  0
    3.9885   -3.1159    0.0000 O   0  0  0  0  0  0  0  0  0  0  0  0
    3.9885    1.0514    0.0000 O   0  0  0  0  0  0  0  0  0  0  0  0
    7.5974   -1.8572    0.0000 N   0  0  0  0  0  0  0  0  0  0  0  0
    5.4541   -1.4447    0.0000 C   0  0  1  0  0  0  0  0  0  0  0  0
    6.1685   -1.8572    0.0000 C   0  0  2  0  0  0  0  0  0  0  0  0
    6.8830   -1.4447    0.0000 C   0  0  1  0  0  0  0  0  0  0  0  0
    4.7397   -1.8572    0.0000 C   0  0  2  0  0  0  0  0  0  0  0  0
    5.9308   -0.8397    0.0000 C   0  0  0  0  0  0  0  0  0  0  0  0
    5.4541   -0.6198    0.0000 C   0  0  0  0  0  0  0  0  0  0  0  0
    6.8830   -0.6198    0.0000 C   0  0  0  0  0  0  0  0  0  0  0  0
    7.1041   -0.8397    0.0000 C   0  0  0  0  0  0  0  0  0  0  0  0
    6.1685   -0.2072    0.0000 C   0  0  0  0  0  0  0  0  0  0  0  0
    4.7397   -2.6822    0.0000 C   0  0  2  0  0  0  0  0  0  0  0  0
    6.1685   -2.6822    0.0000 C   0  0  0  0  0  0  0  0  0  0  0  0
    4.7397   -0.2072    0.0000 C   0  0  0  0  0  0  0  0  0  0  0  0
    5.4541   -3.0947    0.0000 C   0  0  0  0  0  0  0  0  0  0  0  0
    6.1685    0.6177    0.0000 C   0  0  0  0  0  0  0  0  0  0  0  0
    8.1883   -2.4923    0.0000 C   0  0  0  0  0  0  0  0  0  0  0  0
    4.7397    0.6177    0.0000 C   0  0  0  0  0  0  0  0  0  0  0  0
    5.4541    1.0302    0.0000 C   0  0  0  0  0  0  0  0  0  0  0  0
    3.9885    1.9188    0.0000 C   0  0  0  0  0  0  0  0  0  0  0  0
    3.2373    2.3526    0.0000 C   0  0  0  0  0  0  0  0  0  0  0  0
    2.4860    1.9189    0.0000 C   0  0  0  0  0  0  0  0  0  0  0  0
    3.2373    3.2200    0.0000 C   0  0  0  0  0  0  0  0  0  0  0  0
    1.7348    2.3526    0.0000 C   0  0  0  0  0  0  0  0  0  0  0  0
    2.4860    3.6537    0.0000 C   0  0  0  0  0  0  0  0  0  0  0  0
    1.7348    3.2200    0.0000 C   0  0  0  0  0  0  0  0  0  0  0  0
    6.6146   -2.3888    0.0000 H   0  0  0  0  0  0  0  0  0  0  0  0
    7.1209   -2.0966    0.0000 H   0  0  0  0  0  0  0  0  0  0  0  0
    4.0731   -2.0502    0.0000 H   0  0  0  0  0  0  0  0  0  0  0  0
  1  8  1  0  0  0  0
  1 16  1  0  0  0  0
 14  2  1  6  0  0  0
  3 20  1  0  0  0  0
  3 22  1  0  0  0  0
  4  7  1  0  0  0  0
  4 12  1  0  0  0  0
  4 19  1  0  0  0  0
  5  6  1  0  0  0  0
  5  8  1  0  0  0  0
  5  9  1  1  0  0  0
  5 10  1  0  0  0  0
  6  7  1  0  0  0  0
  6 15  1  0  0  0  0
  6 29  1  1  0  0  0
  7 11  1  0  0  0  0
  7 30  1  6  0  0  0
  8 14  1  0  0  0  0
  8 31  1  1  0  0  0
  9 12  1  0  0  0  0
 10 13  2  0  0  0  0
 10 16  1  0  0  0  0
 11 13  1  0  0  0  0
 13 18  1  0  0  0  0
 14 17  1  0  0  0  0
 15 17  2  0  0  0  0
 16 20  2  0  0  0  0
 18 21  2  0  0  0  0
 20 21  1  0  0  0  0
 22 23  1  0  0  0  0
 23 24  2  0  0  0  0
 23 25  1  0  0  0  0
 24 26  1  0  0  0  0
 25 27  2  0  0  0  0
 26 28  2  0  0  0  0
 27 28  1  0  0  0  0
M  END
> <DATABASE_ID>
DB01573

> <DATABASE_NAME>
drugbank

> <SMILES>
[H][C@@]12OC3=C(OCC4=CC=CC=C4)C=CC4=C3[C@@]11CCN(C)[C@]([H])(C4)[C@]1([H])C=C[C@@H]2O

> <INCHI_IDENTIFIER>
InChI=1S/C24H25NO3/c1-25-12-11-24-17-8-9-19(26)23(24)28-22-20(27-14-15-5-3-2-4-6-15)10-7-16(21(22)24)13-18(17)25/h2-10,17-19,23,26H,11-14H2,1H3/t17-,18+,19-,23-,24-/m0/s1

> <INCHI_KEY>
RDJGWRFTDZZXSM-RNWLQCGYSA-N

> <FORMULA>
C24H25NO3

> <MOLECULAR_WEIGHT>
375.4602

> <EXACT_MASS>
375.183443671

> <JCHEM_ACCEPTOR_COUNT>
4

> <JCHEM_AVERAGE_POLARIZABILITY>
41.365484859127214

> <JCHEM_BIOAVAILABILITY>
1

> <JCHEM_DONOR_COUNT>
1

> <JCHEM_FORMAL_CHARGE>
0

> <JCHEM_GHOSE_FILTER>
1

> <JCHEM_IUPAC>
(1S,5R,13R,14S,17R)-10-(benzyloxy)-4-methyl-12-oxa-4-azapentacyclo[9.6.1.0¹,¹³.0⁵,¹⁷.0⁷,¹⁸]octadeca-7(18),8,10,15-tetraen-14-ol

> <ALOGPS_LOGP>
2.71

> <JCHEM_LOGP>
3.067424400333334

> <ALOGPS_LOGS>
-3.92

> <JCHEM_MDDR_LIKE_RULE>
0

> <JCHEM_NUMBER_OF_RINGS>
6

> <JCHEM_PHYSIOLOGICAL_CHARGE>
1

> <JCHEM_PKA_STRONGEST_ACIDIC>
13.782739176532331

> <JCHEM_PKA_STRONGEST_BASIC>
9.18841748648718

> <JCHEM_POLAR_SURFACE_AREA>
41.93

> <JCHEM_REFRACTIVITY>
109.21730000000001

> <JCHEM_ROTATABLE_BOND_COUNT>
3

> <JCHEM_RULE_OF_FIVE>
1

> <ALOGPS_SOLUBILITY>
4.56e-02 g/l

> <JCHEM_TRADITIONAL_IUPAC>
benzylmorphine

> <JCHEM_VEBER_RULE>
0

> <DRUGBANK_ID>
DB01573

> <DRUG_GROUPS>
experimental; illicit

> <GENERIC_NAME>
Benzylmorphine

$$$$
1576
  Mrv0541 02231215342D          

 10 10  0  0  1  0            999 V2000
    3.0790    1.7284    0.0000 N   0  0  0  0  0  0  0  0  0  0  0  0
    3.0790    0.9034    0.0000 C   0  0  2  0  0  0  0  0  0  0  0  0
    2.3645    0.4909    0.0000 C   0  0  0  0  0  0  0  0  0  0  0  0
    2.3645   -0.3341    0.0000 C   0  0  0  0  0  0  0  0  0  0  0  0
    3.7935    0.4909    0.0000 C   0  0  0  0  0  0  0  0  0  0  0  0
    3.0790   -0.7466    0.0000 C   0  0  0  0  0  0  0  0  0  0  0  0
    1.6500   -0.7466    0.0000 C   0  0  0  0  0  0  0  0  0  0  0  0
    3.0790   -1.5716    0.0000 C   0  0  0  0  0  0  0  0  0  0  0  0
    1.6500   -1.5716    0.0000 C   0  0  0  0  0  0  0  0  0  0  0  0
    2.3645   -1.9841    0.0000 C   0  0  0  0  0  0  0  0  0  0  0  0
  2  1  1  1  0  0  0
  2  3  1  0  0  0  0
  2  5  1  0  0  0  0
  3  4  1  0  0  0  0
  4  6  2  0  0  0  0
  4  7  1  0  0  0  0
  6  8  1  0  0  0  0
  7  9  2  0  0  0  0
  8 10  2  0  0  0  0
  9 10  1  0  0  0  0
M  END
> <DATABASE_ID>
DB01576

> <DATABASE_NAME>
drugbank

> <SMILES>
C[C@H](N)CC1=CC=CC=C1

> <INCHI_IDENTIFIER>
InChI=1S/C9H13N/c1-8(10)7-9-5-3-2-4-6-9/h2-6,8H,7,10H2,1H3/t8-/m0/s1

> <INCHI_KEY>
KWTSXDURSIMDCE-QMMMGPOBSA-N

> <FORMULA>
C9H13N

> <MOLECULAR_WEIGHT>
135.2062

> <EXACT_MASS>
135.104799421

> <JCHEM_ACCEPTOR_COUNT>
1

> <JCHEM_AVERAGE_POLARIZABILITY>
16.080575367482364

> <JCHEM_BIOAVAILABILITY>
1

> <JCHEM_DONOR_COUNT>
1

> <JCHEM_FORMAL_CHARGE>
0

> <JCHEM_GHOSE_FILTER>
0

> <JCHEM_IUPAC>
(2S)-1-phenylpropan-2-amine

> <ALOGPS_LOGP>
1.85

> <JCHEM_LOGP>
1.8042504816666665

> <ALOGPS_LOGS>
-1.89

> <JCHEM_MDDR_LIKE_RULE>
0

> <JCHEM_NUMBER_OF_RINGS>
1

> <JCHEM_PHYSIOLOGICAL_CHARGE>
1

> <JCHEM_PKA_STRONGEST_BASIC>
10.01443581771614

> <JCHEM_POLAR_SURFACE_AREA>
26.02

> <JCHEM_REFRACTIVITY>
43.705200000000005

> <JCHEM_ROTATABLE_BOND_COUNT>
2

> <JCHEM_RULE_OF_FIVE>
1

> <ALOGPS_SOLUBILITY>
1.74e+00 g/l

> <JCHEM_TRADITIONAL_IUPAC>
amphetamine

> <JCHEM_VEBER_RULE>
1

> <DRUGBANK_ID>
DB01576

> <DRUG_GROUPS>
approved; illicit

> <GENERIC_NAME>
Dextroamphetamine

> <SYNONYMS>
(+)-(S)-amphetamine; (+)-amphetamine; (+)-α-methylphenethylamine; (+)-α-methylphenylethylamine; (S)-(+)-amphetamine; (S)-(+)-β-phenylisopropylamine; (S)-1-phenyl-2-aminopropane; (S)-1-phenyl-2-propylamine; (S)-amphetamine; (S)-α-methylbenzeneethanamine; (αS)-α-methylbenzeneethanamine; d-amphetamine; Desamfetamina; Dexamfetamina; Dexamfetamine; Dexamfetaminum; Dexamphetamine; Dexanfetamina; Dextroamphetamine

> <PRODUCTS>
Act Amphetamine XR; Act Dextroamphetamine SR; Adderall; Adderall XR; Apo-amphetamine XR; Apo-dextroamphetamine SR; DEXEDRINE Spansule; Dexedrine; Dexedrine Spansule; Dexedrine Spansule Src 10mg; Dexedrine Spansule Src 15mg; Dexedrine Tablets (5mg); Dextroamphetamine; Dextroamphetamine Saccharate and Amphetamine Aspartate and Dextroamphetamine Sulfate and Amphetamine Sulfate; Dextroamphetamine Saccharate, Amphetamine Aspartate (monohydrate), Dextroamphetamine Sulfate, Amphetamine Sulfate; Dextroamphetamine Saccharate, Amphetamine Aspartate Monohydrate, Dextroamphetamine Sulfate and Amphetamine Sulfate; Dextroamphetamine Saccharate, Amphetamine Aspartate Monohydrate, Dextroamphetamine Sulfate, Amphetamine Sulfate Extended-Release; Dextroamphetamine Saccharate, Amphetamine Aspartate Monohydrate, Dextroamphetamine Sulfate, and Amphetamine Sulfate; Dextroamphetamine Saccharate, Amphetamine Aspartate Monohydrate, Dextroamphetamine Sulfate, and Amphetamine Sulfate Extended-Release; Dextroamphetamine Saccharate, Amphetamine Aspartate, Dextroamphetamine Sulfate and Amphetamine Suflate; Dextroamphetamine Saccharate, Amphetamine Aspartate, Dextroamphetamine Sulfate and Amphetamine Sulfate; Dextroamphetamine Saccharate, Amphetamine Aspartate, Dextroamphetamine Sulfate, Amphetamine Sulfate; Dextroamphetamine Saccharate, Amphetamine Aspartate, Dextroamphetamine Sulfate, Amphetamine Sulfate Tablets,CII; Dextroamphetamine Saccharate, Amphetamine Aspartate, Dextroamphetamine Sulfate, and Amphetamine Sulfate; Dextroamphetamine Sulfate; Dextroamphetamine Sulfate Extended-Release; Dextroamphetamine SulfateExtended-Release Extended-Release; Dextroamphetamine saccharate, amphetamine aspartate monohydrate, dextroamphetamine sulfate and amphetamine sulfate; Dextroamphetamine saccharate, amphetamine aspartate monohydrate, dextroamphetamine sulfate, amphetamine sulfate; Dextroamphetamine saccharate, amphetamine aspartate monohydrate, dextroamphetamine sulfate, amphetamine sulfate ER; Dextroamphetamine saccharate, amphetamine aspartate, dextroamphetamine sulfate, and amphetamine sulfate; Dextrostat; Mixed Salts of a Single Entity Amphetamine Product XR; Mydayis; PMS-amphetamines XR; PMS-dextroamphetamine; ProCentra; Procentra; Sandoz Amphetamine XR; Zenzedi

> <INTERNATIONAL_BRANDS>
Attentin; Dexamphetamine

> <SALTS>
Dextroamphetamine adipate; Dextroamphetamine saccharate; Dextroamphetamine sulfate

$$$$

  Mrv1718008311812302D          

 11 11  0  0  0  0            999 V2000
    1.0735   -0.3907    0.0000 N   0  0  0  0  0  0  0  0  0  0  0  0
    0.3643    0.8250    0.0000 C   0  0  0  0  0  0  0  0  0  0  0  0
   -0.3497    0.4053    0.0000 C   0  0  0  0  0  0  0  0  0  0  0  0
    1.0735    0.4197    0.0000 C   0  0  2  0  0  0  0  0  0  0  0  0
    1.7682   -0.7961    0.0000 C   0  0  0  0  0  0  0  0  0  0  0  0
   -1.0687    0.8250    0.0000 C   0  0  0  0  0  0  0  0  0  0  0  0
   -0.3497   -0.4197    0.0000 C   0  0  0  0  0  0  0  0  0  0  0  0
    1.7779    0.8395    0.0000 C   0  0  0  0  0  0  0  0  0  0  0  0
   -1.7779    0.4053    0.0000 C   0  0  0  0  0  0  0  0  0  0  0  0
   -1.0687   -0.8395    0.0000 C   0  0  0  0  0  0  0  0  0  0  0  0
   -1.7779   -0.4197    0.0000 C   0  0  0  0  0  0  0  0  0  0  0  0
  2  4  1  0  0  0  0
  3  2  1  0  0  0  0
  4  1  1  6  0  0  0
  5  1  1  0  0  0  0
  6  3  1  0  0  0  0
  7  3  2  0  0  0  0
  8  4  1  0  0  0  0
  9  6  2  0  0  0  0
 10  7  1  0  0  0  0
 11  9  1  0  0  0  0
 11 10  2  0  0  0  0
M  END
> <DATABASE_ID>
DB01577

> <DATABASE_NAME>
drugbank

> <SMILES>
CN[C@@H](C)CC1=CC=CC=C1

> <INCHI_IDENTIFIER>
InChI=1S/C10H15N/c1-9(11-2)8-10-6-4-3-5-7-10/h3-7,9,11H,8H2,1-2H3/t9-/m0/s1

> <INCHI_KEY>
MYWUZJCMWCOHBA-VIFPVBQESA-N

> <FORMULA>
C10H15N

> <MOLECULAR_WEIGHT>
149.2328

> <EXACT_MASS>
149.120449485

> <JCHEM_ACCEPTOR_COUNT>
1

> <JCHEM_ATOM_COUNT>
26

> <JCHEM_AVERAGE_POLARIZABILITY>
18.03959761003904

> <JCHEM_BIOAVAILABILITY>
1

> <JCHEM_DONOR_COUNT>
1

> <JCHEM_FORMAL_CHARGE>
0

> <JCHEM_GHOSE_FILTER>
0

> <JCHEM_IUPAC>
methyl[(2S)-1-phenylpropan-2-yl]amine

> <ALOGPS_LOGP>
2.23

> <JCHEM_LOGP>
2.2368308753333324

> <ALOGPS_LOGS>
-2.21

> <JCHEM_MDDR_LIKE_RULE>
0

> <JCHEM_NUMBER_OF_RINGS>
1

> <JCHEM_PHYSIOLOGICAL_CHARGE>
1

> <JCHEM_PKA_STRONGEST_BASIC>
10.20988414728296

> <JCHEM_POLAR_SURFACE_AREA>
12.03

> <JCHEM_REFRACTIVITY>
48.47980000000001

> <JCHEM_ROTATABLE_BOND_COUNT>
3

> <JCHEM_RULE_OF_FIVE>
1

> <ALOGPS_SOLUBILITY>
9.28e-01 g/l

> <JCHEM_TRADITIONAL_IUPAC>
methamphetamine

> <JCHEM_VEBER_RULE>
1

> <DRUGBANK_ID>
DB01577

> <DRUG_GROUPS>
approved; illicit

> <GENERIC_NAME>
Metamfetamine

> <SYNONYMS>
(+)-(S)-N-α-dimethylphenethylamine; (S)-N,α-dimethylbenzeneethanamine; (αS)-N,α-dimethylbenzeneethanamine; d-1-phenyl-2-methylaminopropane; d-deoxyephedrine; d-desoxyephedrine; d-N-methylamphetamine; d-phenylisopropylmethylamine; Dextromethamphetamine; Métamfétamine; Metamfetamine; Metamfetaminum; Metanfetamina; Methamphetamine; Methamphetaminum; methyl-β-phenylisopropylamine

> <PRODUCTS>
Desoxyn; Methamphetamine Hydrochloride

> <SALTS>
Metamfetamine hydrochloride; Metamfetamine tartrate

$$$$

  Mrv1572004101620452D          

 14 15  0  0  0  0            999 V2000
    0.3572    0.2061    0.0000 C   0  0  1  0  0  0  0  0  0  0  0  0
   -0.3573    0.6185    0.0000 C   0  0  0  0  0  0  0  0  0  0  0  0
    0.3572   -0.6184    0.0000 C   0  0  1  0  0  0  0  0  0  0  0  0
    1.0719    0.6185    0.0000 O   0  0  0  0  0  0  0  0  0  0  0  0
   -1.0719    0.2061    0.0000 C   0  0  0  0  0  0  0  0  0  0  0  0
   -0.3573    1.4430    0.0000 C   0  0  0  0  0  0  0  0  0  0  0  0
    1.0719   -1.0307    0.0000 N   0  0  0  0  0  0  0  0  0  0  0  0
   -0.3573   -1.0307    0.0000 C   0  0  0  0  0  0  0  0  0  0  0  0
    1.7866    0.2061    0.0000 C   0  0  0  0  0  0  0  0  0  0  0  0
   -1.7866    0.6185    0.0000 C   0  0  0  0  0  0  0  0  0  0  0  0
   -1.0719    1.8553    0.0000 C   0  0  0  0  0  0  0  0  0  0  0  0
    1.7866   -0.6184    0.0000 C   0  0  0  0  0  0  0  0  0  0  0  0
    1.0719   -1.8553    0.0000 C   0  0  0  0  0  0  0  0  0  0  0  0
   -1.7866    1.4430    0.0000 C   0  0  0  0  0  0  0  0  0  0  0  0
  1  2  1  6  0  0  0
  1  3  1  0  0  0  0
  1  4  1  0  0  0  0
  2  5  2  0  0  0  0
  2  6  1  0  0  0  0
  3  7  1  0  0  0  0
  3  8  1  1  0  0  0
  4  9  1  0  0  0  0
  5 10  1  0  0  0  0
  6 11  2  0  0  0  0
  7 12  1  0  0  0  0
  7 13  1  0  0  0  0
 10 14  2  0  0  0  0
  9 12  1  0  0  0  0
 11 14  1  0  0  0  0
M  END
> <DATABASE_ID>
DB01579

> <DATABASE_NAME>
drugbank

> <SMILES>
C[C@H]1[C@@H](OCCN1C)C1=CC=CC=C1

> <INCHI_IDENTIFIER>
InChI=1S/C12H17NO/c1-10-12(14-9-8-13(10)2)11-6-4-3-5-7-11/h3-7,10,12H,8-9H2,1-2H3/t10-,12+/m0/s1

> <INCHI_KEY>
MFOCDFTXLCYLKU-CMPLNLGQSA-N

> <FORMULA>
C12H17NO

> <MOLECULAR_WEIGHT>
191.274

> <EXACT_MASS>
191.131014171

> <JCHEM_ACCEPTOR_COUNT>
2

> <JCHEM_ATOM_COUNT>
31

> <JCHEM_AVERAGE_POLARIZABILITY>
22.184290342195247

> <JCHEM_BIOAVAILABILITY>
1

> <JCHEM_DONOR_COUNT>
0

> <JCHEM_FORMAL_CHARGE>
0

> <JCHEM_GHOSE_FILTER>
1

> <JCHEM_IUPAC>
(2S,3S)-3,4-dimethyl-2-phenylmorpholine

> <ALOGPS_LOGP>
2.01

> <JCHEM_LOGP>
2.1724842260000004

> <ALOGPS_LOGS>
-1.90

> <JCHEM_MDDR_LIKE_RULE>
0

> <JCHEM_NUMBER_OF_RINGS>
2

> <JCHEM_PHYSIOLOGICAL_CHARGE>
1

> <JCHEM_PKA_STRONGEST_BASIC>
7.276824781278643

> <JCHEM_POLAR_SURFACE_AREA>
12.47

> <JCHEM_REFRACTIVITY>
57.76420000000002

> <JCHEM_ROTATABLE_BOND_COUNT>
1

> <JCHEM_RULE_OF_FIVE>
1

> <ALOGPS_SOLUBILITY>
2.43e+00 g/l

> <JCHEM_TRADITIONAL_IUPAC>
phendimetrazine

> <JCHEM_VEBER_RULE>
1

> <DRUGBANK_ID>
DB01579

> <DRUG_GROUPS>
approved; illicit

> <GENERIC_NAME>
Phendimetrazine

> <SYNONYMS>
(2S,3S)-3,4-dimethyl-2-phenylmorpholine; Phendimetrazine

> <PRODUCTS>
Bontril; Bontril PDM; Fendique ER; Phendimetrazine; Phendimetrazine Tartrate; Phendimetrazine Tartrate ER; Phendimetrazine tartrate

> <INTERNATIONAL_BRANDS>
Adipost; Melfiat; Statobex

> <SALTS>
Phendimetrazine tartrate

$$$$
1588
  Mrv0541 02231215342D          

 23 26  0  0  0  0            999 V2000
    3.6651   -2.5532    0.0000 Cl  0  0  0  0  0  0  0  0  0  0  0  0
    3.4586    2.1652    0.0000 O   0  0  0  0  0  0  0  0  0  0  0  0
    3.3022    0.7769    0.0000 N   0  0  0  0  0  0  0  0  0  0  0  0
    5.1560    0.7769    0.0000 N   0  0  0  0  0  0  0  0  0  0  0  0
    2.2548    1.7488    0.0000 C   0  0  0  0  0  0  0  0  0  0  0  0
    2.4384    2.5532    0.0000 C   0  0  0  0  0  0  0  0  0  0  0  0
    1.6500    2.3100    0.0000 C   0  0  0  0  0  0  0  0  0  0  0  0
    2.4979    0.9605    0.0000 C   0  0  0  0  0  0  0  0  0  0  0  0
    3.4859   -0.0274    0.0000 C   0  0  0  0  0  0  0  0  0  0  0  0
    3.8166    1.4220    0.0000 C   0  0  0  0  0  0  0  0  0  0  0  0
    4.2291   -0.3854    0.0000 C   0  0  0  0  0  0  0  0  0  0  0  0
    4.6416    1.4220    0.0000 C   0  0  0  0  0  0  0  0  0  0  0  0
    2.7684   -0.5004    0.0000 C   0  0  0  0  0  0  0  0  0  0  0  0
    4.9724   -0.0274    0.0000 C   0  0  0  0  0  0  0  0  0  0  0  0
    4.3066   -1.2412    0.0000 C   0  0  0  0  0  0  0  0  0  0  0  0
    2.8260   -1.3579    0.0000 C   0  0  0  0  0  0  0  0  0  0  0  0
    5.6174   -0.5418    0.0000 C   0  0  0  0  0  0  0  0  0  0  0  0
    3.6003   -1.7308    0.0000 C   0  0  0  0  0  0  0  0  0  0  0  0
    6.3854   -0.2403    0.0000 C   0  0  0  0  0  0  0  0  0  0  0  0
    5.4945   -1.3575    0.0000 C   0  0  0  0  0  0  0  0  0  0  0  0
    7.0304   -0.7547    0.0000 C   0  0  0  0  0  0  0  0  0  0  0  0
    6.1395   -1.8719    0.0000 C   0  0  0  0  0  0  0  0  0  0  0  0
    6.9074   -1.5705    0.0000 C   0  0  0  0  0  0  0  0  0  0  0  0
  1 18  1  0  0  0  0
  2 10  2  0  0  0  0
  3  8  1  0  0  0  0
  3  9  1  0  0  0  0
  3 10  1  0  0  0  0
  4 12  1  0  0  0  0
  4 14  2  0  0  0  0
  5  6  1  0  0  0  0
  5  7  1  0  0  0  0
  5  8  1  0  0  0  0
  6  7  1  0  0  0  0
  9 11  2  0  0  0  0
  9 13  1  0  0  0  0
 10 12  1  0  0  0  0
 11 14  1  0  0  0  0
 11 15  1  0  0  0  0
 13 16  2  0  0  0  0
 14 17  1  0  0  0  0
 15 18  2  0  0  0  0
 16 18  1  0  0  0  0
 17 19  2  0  0  0  0
 17 20  1  0  0  0  0
 19 21  1  0  0  0  0
 20 22  2  0  0  0  0
 21 23  2  0  0  0  0
 22 23  1  0  0  0  0
M  END
> <DATABASE_ID>
DB01588

> <DATABASE_NAME>
drugbank

> <SMILES>
ClC1=CC2=C(C=C1)N(CC1CC1)C(=O)CN=C2C1=CC=CC=C1

> <INCHI_IDENTIFIER>
InChI=1S/C19H17ClN2O/c20-15-8-9-17-16(10-15)19(14-4-2-1-3-5-14)21-11-18(23)22(17)12-13-6-7-13/h1-5,8-10,13H,6-7,11-12H2

> <INCHI_KEY>
MWQCHHACWWAQLJ-UHFFFAOYSA-N

> <FORMULA>
C19H17ClN2O

> <MOLECULAR_WEIGHT>
324.804

> <EXACT_MASS>
324.102940883

> <JCHEM_ACCEPTOR_COUNT>
2

> <JCHEM_AVERAGE_POLARIZABILITY>
34.76703104782766

> <JCHEM_BIOAVAILABILITY>
1

> <JCHEM_DONOR_COUNT>
0

> <JCHEM_FORMAL_CHARGE>
0

> <JCHEM_GHOSE_FILTER>
1

> <JCHEM_IUPAC>
7-chloro-1-(cyclopropylmethyl)-5-phenyl-2,3-dihydro-1H-1,4-benzodiazepin-2-one

> <ALOGPS_LOGP>
3.68

> <JCHEM_LOGP>
3.856663840666667

> <ALOGPS_LOGS>
-4.91

> <JCHEM_MDDR_LIKE_RULE>
0

> <JCHEM_NUMBER_OF_RINGS>
4

> <JCHEM_PHYSIOLOGICAL_CHARGE>
0

> <JCHEM_PKA_STRONGEST_BASIC>
3.064137855264895

> <JCHEM_POLAR_SURFACE_AREA>
32.67

> <JCHEM_REFRACTIVITY>
91.7539

> <JCHEM_ROTATABLE_BOND_COUNT>
3

> <JCHEM_RULE_OF_FIVE>
1

> <ALOGPS_SOLUBILITY>
3.99e-03 g/l

> <JCHEM_TRADITIONAL_IUPAC>
prazepam

> <JCHEM_VEBER_RULE>
1

> <DRUGBANK_ID>
DB01588

> <DRUG_GROUPS>
approved; illicit

> <GENERIC_NAME>
Prazepam

> <SYNONYMS>
Prazepamum

> <INTERNATIONAL_BRANDS>
Centrax; Demetrin; Lysanxia; Sedapran; Trepidan

$$$$
1589
  Mrv0541 02231215342D          

 25 27  0  0  0  0            999 V2000
    4.0267   -2.3989    0.0000 Cl  0  0  0  0  0  0  0  0  0  0  0  0
    4.2399    2.3989    0.0000 S   0  0  0  0  0  0  0  0  0  0  0  0
    1.6936    1.0712    0.0000 F   0  0  0  0  0  0  0  0  0  0  0  0
    1.6500    2.2371    0.0000 F   0  0  0  0  0  0  0  0  0  0  0  0
    2.8159    2.2807    0.0000 F   0  0  0  0  0  0  0  0  0  0  0  0
    6.8699    0.7297    0.0000 F   0  0  0  0  0  0  0  0  0  0  0  0
    3.6638    0.9312    0.0000 N   0  0  0  0  0  0  0  0  0  0  0  0
    5.5176    0.9312    0.0000 N   0  0  0  0  0  0  0  0  0  0  0  0
    3.8475    0.1269    0.0000 C   0  0  0  0  0  0  0  0  0  0  0  0
    4.5907   -0.2311    0.0000 C   0  0  0  0  0  0  0  0  0  0  0  0
    5.3340    0.1269    0.0000 C   0  0  0  0  0  0  0  0  0  0  0  0
    2.8595    1.1148    0.0000 C   0  0  0  0  0  0  0  0  0  0  0  0
    4.1782    1.5762    0.0000 C   0  0  0  0  0  0  0  0  0  0  0  0
    5.0032    1.5762    0.0000 C   0  0  0  0  0  0  0  0  0  0  0  0
    3.1301   -0.3462    0.0000 C   0  0  0  0  0  0  0  0  0  0  0  0
    4.6682   -1.0869    0.0000 C   0  0  0  0  0  0  0  0  0  0  0  0
    5.9790   -0.3875    0.0000 C   0  0  0  0  0  0  0  0  0  0  0  0
    2.2548    1.6759    0.0000 C   0  0  0  0  0  0  0  0  0  0  0  0
    3.1876   -1.2036    0.0000 C   0  0  0  0  0  0  0  0  0  0  0  0
    3.9619   -1.5765    0.0000 C   0  0  0  0  0  0  0  0  0  0  0  0
    6.7470   -0.0860    0.0000 C   0  0  0  0  0  0  0  0  0  0  0  0
    5.8561   -1.2033    0.0000 C   0  0  0  0  0  0  0  0  0  0  0  0
    7.3920   -0.6004    0.0000 C   0  0  0  0  0  0  0  0  0  0  0  0
    6.5011   -1.7176    0.0000 C   0  0  0  0  0  0  0  0  0  0  0  0
    7.2691   -1.4163    0.0000 C   0  0  0  0  0  0  0  0  0  0  0  0
  1 20  1  0  0  0  0
  2 13  2  0  0  0  0
  3 18  1  0  0  0  0
  4 18  1  0  0  0  0
  5 18  1  0  0  0  0
  6 21  1  0  0  0  0
  7  9  1  0  0  0  0
  7 12  1  0  0  0  0
  7 13  1  0  0  0  0
  8 11  2  0  0  0  0
  8 14  1  0  0  0  0
  9 10  2  0  0  0  0
  9 15  1  0  0  0  0
 10 11  1  0  0  0  0
 10 16  1  0  0  0  0
 11 17  1  0  0  0  0
 12 18  1  0  0  0  0
 13 14  1  0  0  0  0
 15 19  2  0  0  0  0
 16 20  2  0  0  0  0
 17 21  1  0  0  0  0
 17 22  2  0  0  0  0
 19 20  1  0  0  0  0
 21 23  2  0  0  0  0
 22 24  1  0  0  0  0
 23 25  1  0  0  0  0
 24 25  2  0  0  0  0
M  END
> <DATABASE_ID>
DB01589

> <DATABASE_NAME>
drugbank

> <SMILES>
FC1=CC=CC=C1C1=NCC(=S)N(CC(F)(F)F)C2=C1C=C(Cl)C=C2

> <INCHI_IDENTIFIER>
InChI=1S/C17H11ClF4N2S/c18-10-5-6-14-12(7-10)16(11-3-1-2-4-13(11)19)23-8-15(25)24(14)9-17(20,21)22/h1-7H,8-9H2

> <INCHI_KEY>
IKMPWMZBZSAONZ-UHFFFAOYSA-N

> <FORMULA>
C17H11ClF4N2S

> <MOLECULAR_WEIGHT>
386.794

> <EXACT_MASS>
386.026759579

> <JCHEM_ACCEPTOR_COUNT>
1

> <JCHEM_AVERAGE_POLARIZABILITY>
33.98654654068618

> <JCHEM_BIOAVAILABILITY>
1

> <JCHEM_DONOR_COUNT>
0

> <JCHEM_FORMAL_CHARGE>
0

> <JCHEM_GHOSE_FILTER>
1

> <JCHEM_IUPAC>
7-chloro-5-(2-fluorophenyl)-1-(2,2,2-trifluoroethyl)-2,3-dihydro-1H-1,4-benzodiazepine-2-thione

> <ALOGPS_LOGP>
4.76

> <JCHEM_LOGP>
5.063754325

> <ALOGPS_LOGS>
-5.22

> <JCHEM_MDDR_LIKE_RULE>
0

> <JCHEM_NUMBER_OF_RINGS>
3

> <JCHEM_PHYSIOLOGICAL_CHARGE>
0

> <JCHEM_PKA_STRONGEST_ACIDIC>
18.92550903696869

> <JCHEM_PKA_STRONGEST_BASIC>
2.5914571454754456

> <JCHEM_POLAR_SURFACE_AREA>
15.6

> <JCHEM_REFRACTIVITY>
93.46930000000002

> <JCHEM_ROTATABLE_BOND_COUNT>
3

> <JCHEM_RULE_OF_FIVE>
0

> <ALOGPS_SOLUBILITY>
2.31e-03 g/l

> <JCHEM_TRADITIONAL_IUPAC>
quazepam

> <JCHEM_VEBER_RULE>
1

> <DRUGBANK_ID>
DB01589

> <DRUG_GROUPS>
approved; illicit

> <GENERIC_NAME>
Quazepam

> <SYNONYMS>
Quazepam; Quazepamum

> <PRODUCTS>
Doral; Quazepam

> <INTERNATIONAL_BRANDS>
Dormalin

$$$$
Untitled Document-7
  Mrv0541 02231219372D          

 25 28  0  0  0  0            999 V2000
   -2.0637   -0.3135    0.0000 C   0  0  0  0  0  0  0  0  0  0  0  0
   -2.0637   -1.1385    0.0000 C   0  0  0  0  0  0  0  0  0  0  0  0
   -1.3492   -1.5510    0.0000 C   0  0  0  0  0  0  0  0  0  0  0  0
   -0.6348   -1.1385    0.0000 C   0  0  1  0  0  0  0  0  0  0  0  0
   -0.6348   -0.3135    0.0000 C   0  0  2  0  0  0  0  0  0  0  0  0
   -1.3492    0.0990    0.0000 C   0  0  0  0  0  0  0  0  0  0  0  0
    0.0797   -1.5510    0.0000 C   0  0  0  0  0  0  0  0  0  0  0  0
    0.7942   -1.1385    0.0000 C   0  0  0  0  0  0  0  0  0  0  0  0
    0.7942   -0.3135    0.0000 C   0  0  2  0  0  0  0  0  0  0  0  0
    0.0797    0.0990    0.0000 C   0  0  2  0  0  0  0  0  0  0  0  0
    1.5086    0.0990    0.0000 C   0  0  1  0  0  0  0  0  0  0  0  0
    1.5086    0.9240    0.0000 C   0  0  2  0  0  0  0  0  0  0  0  0
    0.7942    1.3365    0.0000 C   0  0  0  0  0  0  0  0  0  0  0  0
    0.0797    0.9240    0.0000 C   0  0  0  0  0  0  0  0  0  0  0  0
    2.2933   -0.1560    0.0000 C   0  0  0  0  0  0  0  0  0  0  0  0
    2.7782    0.5115    0.0000 C   0  0  0  0  0  0  0  0  0  0  0  0
    2.2933    1.1789    0.0000 C   0  0  2  0  0  0  0  0  0  0  0  0
   -2.7782   -1.5510    0.0000 O   0  0  0  0  0  0  0  0  0  0  0  0
   -0.6348    0.5115    0.0000 C   0  0  0  0  0  0  0  0  0  0  0  0
    0.7942    0.5060    0.0000 H   0  0  0  0  0  0  0  0  0  0  0  0
    1.5949    1.7445    0.0000 C   0  0  0  0  0  0  0  0  0  0  0  0
    2.5482    1.9635    0.0000 O   0  0  0  0  0  0  0  0  0  0  0  0
   -0.6348   -1.9635    0.0000 H   0  0  0  0  0  0  0  0  0  0  0  0
    0.0797   -0.7260    0.0000 H   0  0  0  0  0  0  0  0  0  0  0  0
    1.5086   -0.7260    0.0000 H   0  0  0  0  0  0  0  0  0  0  0  0
  1  2  1  0  0  0  0
  2  3  1  0  0  0  0
  3  4  1  0  0  0  0
  4  5  1  0  0  0  0
  5  6  1  0  0  0  0
  6  1  1  0  0  0  0
  4  7  1  0  0  0  0
  7  8  1  0  0  0  0
  8  9  1  0  0  0  0
  9 10  1  0  0  0  0
 10  5  1  0  0  0  0
  9 11  1  0  0  0  0
 11 12  1  0  0  0  0
 12 13  1  0  0  0  0
 13 14  1  0  0  0  0
 14 10  1  0  0  0  0
 11 15  1  0  0  0  0
 15 16  1  0  0  0  0
 16 17  1  0  0  0  0
 17 12  1  0  0  0  0
  2 18  2  0  0  0  0
  5 19  1  1  0  0  0
  9 20  1  1  0  0  0
 12 21  1  1  0  0  0
 17 22  1  1  0  0  0
  4 23  1  6  0  0  0
 10 24  1  6  0  0  0
 11 25  1  6  0  0  0
M  END
> <DATABASE_ID>
DB02901

> <DATABASE_NAME>
drugbank

> <SMILES>
[H][C@@]12CC[C@H](O)[C@@]1(C)CC[C@@]1([H])[C@@]2([H])CC[C@@]2([H])CC(=O)CC[C@]12C

> <INCHI_IDENTIFIER>
InChI=1S/C19H30O2/c1-18-9-7-13(20)11-12(18)3-4-14-15-5-6-17(21)19(15,2)10-8-16(14)18/h12,14-17,21H,3-11H2,1-2H3/t12-,14-,15-,16-,17-,18-,19-/m0/s1

> <INCHI_KEY>
NVKAWKQGWWIWPM-ABEVXSGRSA-N

> <FORMULA>
C19H30O2

> <MOLECULAR_WEIGHT>
290.4403

> <EXACT_MASS>
290.224580204

> <JCHEM_ACCEPTOR_COUNT>
2

> <JCHEM_AVERAGE_POLARIZABILITY>
34.685946213578845

> <JCHEM_BIOAVAILABILITY>
1

> <JCHEM_DONOR_COUNT>
1

> <JCHEM_FORMAL_CHARGE>
0

> <JCHEM_GHOSE_FILTER>
1

> <JCHEM_IUPAC>
(1S,2S,7S,10R,11S,14S,15S)-14-hydroxy-2,15-dimethyltetracyclo[8.7.0.0²,⁷.0¹¹,¹⁵]heptadecan-5-one

> <ALOGPS_LOGP>
3.37

> <JCHEM_LOGP>
3.4112576326666675

> <ALOGPS_LOGS>
-4.46

> <JCHEM_MDDR_LIKE_RULE>
0

> <JCHEM_NUMBER_OF_RINGS>
4

> <JCHEM_PHYSIOLOGICAL_CHARGE>
0

> <JCHEM_PKA_STRONGEST_ACIDIC>
19.37770535655329

> <JCHEM_PKA_STRONGEST_BASIC>
-0.8839915294840951

> <JCHEM_POLAR_SURFACE_AREA>
37.3

> <JCHEM_REFRACTIVITY>
83.60309999999998

> <JCHEM_ROTATABLE_BOND_COUNT>
0

> <JCHEM_RULE_OF_FIVE>
1

> <ALOGPS_SOLUBILITY>
9.98e-03 g/l

> <JCHEM_TRADITIONAL_IUPAC>
dihydrotestosterone

> <JCHEM_VEBER_RULE>
1

> <DRUGBANK_ID>
DB02901

> <SECONDARY_ACCESSION_NUMBERS>
EXPT01199

> <DRUG_GROUPS>
illicit; investigational

> <GENERIC_NAME>
Stanolone

> <SYNONYMS>
17beta-Hydroxy-5alpha-androstan-3-one; 17beta-Hydroxy-5alpha-androstane-3-one; 17beta-Hydroxyandrostan-3-one; 17β-hydroxy-3-oxo-5α-androstanone; 17β-hydroxy-5α-androstan-3-one; 4-Dihydrotestosterone; 5alpha-Dihydrotestosterone; 5α-DHT; Androstanolona; Androstanolone; Androstanolonum; DHT; Dihydrotestosteron; Dihydrotestostérone; Dihydrotestosterone

> <INTERNATIONAL_BRANDS>
Anaboleen; Anabolex; Andractim; Androlone; Cristerona MB; Neodrol; Proteina; Protona; Stanaprol

$$$$

  Mrv1718010091816282D          

 18 20  0  0  0  0            999 V2000
   -0.7146   -0.5693    0.0000 C   0  0  0  0  0  0  0  0  0  0  0  0
   -0.7146   -1.3943    0.0000 C   0  0  0  0  0  0  0  0  0  0  0  0
    0.0000   -0.1568    0.0000 C   0  0  0  0  0  0  0  0  0  0  0  0
    0.0000   -1.8068    0.0000 C   0  0  0  0  0  0  0  0  0  0  0  0
    0.7144   -0.5693    0.0000 C   0  0  0  0  0  0  0  0  0  0  0  0
    0.7144   -1.3943    0.0000 C   0  0  0  0  0  0  0  0  0  0  0  0
    0.5832    0.4264    0.0000 N   0  0  0  0  0  0  0  0  0  0  0  0
   -0.5834    0.4265    0.0000 C   0  0  0  0  0  0  0  0  0  0  0  0
   -0.3697    1.2233    0.0000 C   0  0  0  0  0  0  0  0  0  0  0  0
   -1.3802    0.2130    0.0000 C   0  0  0  0  0  0  0  0  0  0  0  0
   -0.9532    1.8068    0.0000 C   0  0  0  0  0  0  0  0  0  0  0  0
   -1.9636    0.7964    0.0000 C   0  0  0  0  0  0  0  0  0  0  0  0
   -1.7500    1.5933    0.0000 C   0  0  0  0  0  0  0  0  0  0  0  0
    1.3801    0.2129    0.0000 C   0  0  0  0  0  0  0  0  0  0  0  0
    0.3698    1.2234    0.0000 C   0  0  0  0  0  0  0  0  0  0  0  0
    1.9636    0.7964    0.0000 C   0  0  0  0  0  0  0  0  0  0  0  0
    0.9530    1.8067    0.0000 C   0  0  0  0  0  0  0  0  0  0  0  0
    1.7500    1.5932    0.0000 C   0  0  0  0  0  0  0  0  0  0  0  0
  2  1  1  0  0  0  0
  3  1  1  0  0  0  0
  4  2  1  0  0  0  0
  5  3  1  0  0  0  0
  6  4  1  0  0  0  0
  6  5  1  0  0  0  0
  7  3  1  0  0  0  0
  8  3  1  0  0  0  0
  9  8  1  0  0  0  0
 10  8  2  0  0  0  0
 11  9  2  0  0  0  0
 12 10  1  0  0  0  0
 13 11  1  0  0  0  0
 13 12  2  0  0  0  0
 14  7  1  0  0  0  0
 15  7  1  0  0  0  0
 16 14  1  0  0  0  0
 17 15  1  0  0  0  0
 18 16  1  0  0  0  0
 18 17  1  0  0  0  0
M  END
> <DATABASE_ID>
DB03575

> <DATABASE_NAME>
drugbank

> <SMILES>
C1CCN(CC1)C1(CCCCC1)C1=CC=CC=C1

> <INCHI_IDENTIFIER>
InChI=1S/C17H25N/c1-4-10-16(11-5-1)17(12-6-2-7-13-17)18-14-8-3-9-15-18/h1,4-5,10-11H,2-3,6-9,12-15H2

> <INCHI_KEY>
JTJMJGYZQZDUJJ-UHFFFAOYSA-N

> <FORMULA>
C17H25N

> <MOLECULAR_WEIGHT>
243.3871

> <EXACT_MASS>
243.198699805

> <JCHEM_ACCEPTOR_COUNT>
1

> <JCHEM_ATOM_COUNT>
43

> <JCHEM_AVERAGE_POLARIZABILITY>
29.660107042425345

> <JCHEM_BIOAVAILABILITY>
1

> <JCHEM_DONOR_COUNT>
0

> <JCHEM_FORMAL_CHARGE>
0

> <JCHEM_GHOSE_FILTER>
1

> <JCHEM_IUPAC>
1-(1-phenylcyclohexyl)piperidine

> <ALOGPS_LOGP>
5.31

> <JCHEM_LOGP>
4.488047959999999

> <ALOGPS_LOGS>
-4.87

> <JCHEM_MDDR_LIKE_RULE>
0

> <JCHEM_NUMBER_OF_RINGS>
3

> <JCHEM_PHYSIOLOGICAL_CHARGE>
1

> <JCHEM_PKA_STRONGEST_BASIC>
10.557791023087809

> <JCHEM_POLAR_SURFACE_AREA>
3.24

> <JCHEM_REFRACTIVITY>
77.64650000000002

> <JCHEM_ROTATABLE_BOND_COUNT>
2

> <JCHEM_RULE_OF_FIVE>
1

> <ALOGPS_SOLUBILITY>
3.25e-03 g/l

> <JCHEM_TRADITIONAL_IUPAC>
phencyclidine

> <JCHEM_VEBER_RULE>
1

> <DRUGBANK_ID>
DB03575

> <SECONDARY_ACCESSION_NUMBERS>
EXPT03307

> <DRUG_GROUPS>
illicit

> <GENERIC_NAME>
Phencyclidine

> <SYNONYMS>
1-(1-Phenylcyclohexyl)piperidine; Fenciclidina; PCP; Phencyclidine; Phencyclidinum

> <INTERNATIONAL_BRANDS>
Sernyl

> <SALTS>
Phencyclidine hydrochloride

$$$$

  Mrv0541 02231217512D          

  6  6  0  0  0  0            999 V2000
    0.5678    1.9393    0.0000 O   0  0  0  0  0  0  0  0  0  0  0  0
    0.5678    1.1143    0.0000 C   0  0  0  0  0  0  0  0  0  0  0  0
    1.2352    0.6294    0.0000 C   0  0  0  0  0  0  0  0  0  0  0  0
    0.9803   -0.1553    0.0000 C   0  0  0  0  0  0  0  0  0  0  0  0
    0.1553   -0.1553    0.0000 C   0  0  0  0  0  0  0  0  0  0  0  0
   -0.0997    0.6294    0.0000 O   0  0  0  0  0  0  0  0  0  0  0  0
  1  2  2  0  0  0  0
  2  3  1  0  0  0  0
  3  4  1  0  0  0  0
  4  5  1  0  0  0  0
  5  6  1  0  0  0  0
  2  6  1  0  0  0  0
M  END
> <DATABASE_ID>
DB04699

> <DATABASE_NAME>
drugbank

> <SMILES>
O=C1CCCO1

> <INCHI_IDENTIFIER>
InChI=1S/C4H6O2/c5-4-2-1-3-6-4/h1-3H2

> <INCHI_KEY>
YEJRWHAVMIAJKC-UHFFFAOYSA-N

> <FORMULA>
C4H6O2

> <MOLECULAR_WEIGHT>
86.0892

> <EXACT_MASS>
86.036779436

> <JCHEM_ACCEPTOR_COUNT>
1

> <JCHEM_AVERAGE_POLARIZABILITY>
8.230384225920758

> <JCHEM_BIOAVAILABILITY>
1

> <JCHEM_DONOR_COUNT>
0

> <JCHEM_FORMAL_CHARGE>
0

> <JCHEM_GHOSE_FILTER>
0

> <JCHEM_IUPAC>
oxolan-2-one

> <ALOGPS_LOGP>
-0.11

> <JCHEM_LOGP>
0.14955130566666652

> <ALOGPS_LOGS>
0.44

> <JCHEM_MDDR_LIKE_RULE>
0

> <JCHEM_NUMBER_OF_RINGS>
1

> <JCHEM_PHYSIOLOGICAL_CHARGE>
0

> <JCHEM_PKA_STRONGEST_BASIC>
-7.033665932739647

> <JCHEM_POLAR_SURFACE_AREA>
26.3

> <JCHEM_REFRACTIVITY>
20.3081

> <JCHEM_ROTATABLE_BOND_COUNT>
0

> <JCHEM_RULE_OF_FIVE>
1

> <ALOGPS_SOLUBILITY>
2.38e+02 g/l

> <JCHEM_TRADITIONAL_IUPAC>
butyrolactone

> <JCHEM_VEBER_RULE>
1

> <DRUGBANK_ID>
DB04699

> <DRUG_GROUPS>
experimental; illicit

> <GENERIC_NAME>
gamma-Butyrolactone

> <SYNONYMS>
1,4-lactone; 4-butyrolactone; 4-hydroxybutyric acid lactone; butyrolactone; dihydrofuran-2(3h)-one; GBL; γ-butyrolactone

$$$$
4829
  Mrv0541 02231217562D          

 25 28  0  0  1  0            999 V2000
    1.6596    0.6794    0.0000 O   0  0  0  0  0  0  0  0  0  0  0  0
    4.5735    0.6791    0.0000 N   0  0  0  0  0  0  0  0  0  0  0  0
    5.5486   -2.7169    0.0000 N   0  0  0  0  0  0  0  0  0  0  0  0
    2.3692    1.9196    0.0000 N   0  0  0  0  0  0  0  0  0  0  0  0
    4.5603   -0.1801    0.0000 C   0  0  1  0  0  0  0  0  0  0  0  0
    3.8458   -0.5926    0.0000 C   0  0  0  0  0  0  0  0  0  0  0  0
    5.2748   -0.5926    0.0000 C   0  0  0  0  0  0  0  0  0  0  0  0
    3.0885    0.6848    0.0000 C   0  0  1  0  0  0  0  0  0  0  0  0
    3.8327    1.1146    0.0000 C   0  0  0  0  0  0  0  0  0  0  0  0
    5.2748   -1.4176    0.0000 C   0  0  0  0  0  0  0  0  0  0  0  0
    3.8458   -1.4176    0.0000 C   0  0  0  0  0  0  0  0  0  0  0  0
    4.5603   -1.8301    0.0000 C   0  0  0  0  0  0  0  0  0  0  0  0
    3.0951   -0.1745    0.0000 C   0  0  0  0  0  0  0  0  0  0  0  0
    4.5735   -2.6893    0.0000 C   0  0  0  0  0  0  0  0  0  0  0  0
    5.2928    1.0834    0.0000 C   0  0  0  0  0  0  0  0  0  0  0  0
    2.3724    1.0946    0.0000 C   0  0  0  0  0  0  0  0  0  0  0  0
    5.8828   -1.9679    0.0000 C   0  0  0  0  0  0  0  0  0  0  0  0
    3.0951   -1.8358    0.0000 C   0  0  0  0  0  0  0  0  0  0  0  0
    3.8327   -3.1248    0.0000 C   0  0  0  0  0  0  0  0  0  0  0  0
    3.0885   -2.6951    0.0000 C   0  0  0  0  0  0  0  0  0  0  0  0
    3.0821    2.3348    0.0000 C   0  0  0  0  0  0  0  0  0  0  0  0
    1.6532    2.3293    0.0000 C   0  0  0  0  0  0  0  0  0  0  0  0
    3.0789    3.1598    0.0000 C   0  0  0  0  0  0  0  0  0  0  0  0
    1.6500    3.1543    0.0000 C   0  0  0  0  0  0  0  0  0  0  0  0
    5.1344    0.1454    0.0000 H   0  0  0  0  0  0  0  0  0  0  0  0
  1 16  2  0  0  0  0
  2  5  1  0  0  0  0
  2  9  1  0  0  0  0
  2 15  1  0  0  0  0
  3 14  1  0  0  0  0
  3 17  1  0  0  0  0
  4 16  1  0  0  0  0
  4 21  1  0  0  0  0
  4 22  1  0  0  0  0
  5  6  1  0  0  0  0
  5  7  1  0  0  0  0
  5 25  1  1  0  0  0
  6 11  1  0  0  0  0
  6 13  2  0  0  0  0
  7 10  1  0  0  0  0
  8  9  1  0  0  0  0
  8 13  1  0  0  0  0
  8 16  1  1  0  0  0
 10 12  1  0  0  0  0
 10 17  2  0  0  0  0
 11 12  2  0  0  0  0
 11 18  1  0  0  0  0
 12 14  1  0  0  0  0
 14 19  2  0  0  0  0
 18 20  2  0  0  0  0
 19 20  1  0  0  0  0
 21 23  1  0  0  0  0
 22 24  1  0  0  0  0
M  END
> <DATABASE_ID>
DB04829

> <DATABASE_NAME>
drugbank

> <SMILES>
[H][C@@]12CC3=CNC4=CC=CC(=C34)C1=C[C@H](CN2C)C(=O)N(CC)CC

> <INCHI_IDENTIFIER>
InChI=1S/C20H25N3O/c1-4-23(5-2)20(24)14-9-16-15-7-6-8-17-19(15)13(11-21-17)10-18(16)22(3)12-14/h6-9,11,14,18,21H,4-5,10,12H2,1-3H3/t14-,18-/m1/s1

> <INCHI_KEY>
VAYOSLLFUXYJDT-RDTXWAMCSA-N

> <FORMULA>
C20H25N3O

> <MOLECULAR_WEIGHT>
323.432

> <EXACT_MASS>
323.199762437

> <JCHEM_ACCEPTOR_COUNT>
2

> <JCHEM_AVERAGE_POLARIZABILITY>
37.5368063820775

> <JCHEM_BIOAVAILABILITY>
1

> <JCHEM_DONOR_COUNT>
1

> <JCHEM_FORMAL_CHARGE>
0

> <JCHEM_GHOSE_FILTER>
1

> <JCHEM_IUPAC>
(4R,7R)-N,N-diethyl-6-methyl-6,11-diazatetracyclo[7.6.1.0²,⁷.0¹²,¹⁶]hexadeca-1(16),2,9,12,14-pentaene-4-carboxamide

> <ALOGPS_LOGP>
3.30

> <JCHEM_LOGP>
2.2815149479999994

> <ALOGPS_LOGS>
-3.08

> <JCHEM_MDDR_LIKE_RULE>
0

> <JCHEM_NUMBER_OF_RINGS>
4

> <JCHEM_PHYSIOLOGICAL_CHARGE>
1

> <JCHEM_PKA_STRONGEST_ACIDIC>
17.018362935901628

> <JCHEM_PKA_STRONGEST_BASIC>
7.977009732366193

> <JCHEM_POLAR_SURFACE_AREA>
39.34

> <JCHEM_REFRACTIVITY>
98.7347

> <JCHEM_ROTATABLE_BOND_COUNT>
3

> <JCHEM_RULE_OF_FIVE>
1

> <ALOGPS_SOLUBILITY>
2.70e-01 g/l

> <JCHEM_TRADITIONAL_IUPAC>
lysergic acid diethylamide

> <JCHEM_VEBER_RULE>
1

> <DRUGBANK_ID>
DB04829

> <DRUG_GROUPS>
illicit; investigational; withdrawn

> <GENERIC_NAME>
Lysergic acid diethylamide

> <SYNONYMS>
(+)-LSD; D-lysergic acid diethylamide; Diethylamid kyseliny lysergove; LSD; LSD 25; Lysergic acid diethylamide; Lysergide; Lysergidum; Lysergsäurediäthylamid; Lysergsäurediethylamid; N,N-diethyl-(+)-lysergamide; N,N-diethyl-D-lysergamide; N,N-diethyllysergamide

> <INTERNATIONAL_BRANDS>
Delysid

$$$$
4833
  Mrv0541 02231217572D          

 19 21  0  0  0  0            999 V2000
    4.5079   -1.0455    0.0000 O   0  0  0  0  0  0  0  0  0  0  0  0
    3.7934    0.1920    0.0000 N   0  0  0  0  0  0  0  0  0  0  0  0
    4.5079    1.4295    0.0000 N   0  0  0  0  0  0  0  0  0  0  0  0
    3.0790   -0.2205    0.0000 C   0  0  0  0  0  0  0  0  0  0  0  0
    3.7934    1.0170    0.0000 C   0  0  0  0  0  0  0  0  0  0  0  0
    5.2223    0.1920    0.0000 C   0  0  0  0  0  0  0  0  0  0  0  0
    4.5079   -0.2205    0.0000 C   0  0  0  0  0  0  0  0  0  0  0  0
    2.3645    0.1920    0.0000 C   0  0  0  0  0  0  0  0  0  0  0  0
    5.2223    1.0170    0.0000 C   0  0  0  0  0  0  0  0  0  0  0  0
    3.0790   -1.0455    0.0000 C   0  0  0  0  0  0  0  0  0  0  0  0
    5.9599   -0.2492    0.0000 C   0  0  0  0  0  0  0  0  0  0  0  0
    3.0790    1.4295    0.0000 C   0  0  0  0  0  0  0  0  0  0  0  0
    1.6500   -0.2205    0.0000 C   0  0  0  0  0  0  0  0  0  0  0  0
    5.9599    1.4580    0.0000 C   0  0  0  0  0  0  0  0  0  0  0  0
    2.3645    1.0170    0.0000 C   0  0  0  0  0  0  0  0  0  0  0  0
    2.3645   -1.4580    0.0000 C   0  0  0  0  0  0  0  0  0  0  0  0
    1.6500   -1.0455    0.0000 C   0  0  0  0  0  0  0  0  0  0  0  0
    6.7073    0.1748    0.0000 C   0  0  0  0  0  0  0  0  0  0  0  0
    6.7073    1.0341    0.0000 C   0  0  0  0  0  0  0  0  0  0  0  0
  1  7  2  0  0  0  0
  2  4  1  0  0  0  0
  2  5  1  0  0  0  0
  2  7  1  0  0  0  0
  3  5  2  0  0  0  0
  3  9  1  0  0  0  0
  4  8  1  0  0  0  0
  4 10  2  0  0  0  0
  5 12  1  0  0  0  0
  6  7  1  0  0  0  0
  6  9  1  0  0  0  0
  6 11  2  0  0  0  0
  8 13  2  0  0  0  0
  8 15  1  0  0  0  0
  9 14  2  0  0  0  0
 10 16  1  0  0  0  0
 11 18  1  0  0  0  0
 13 17  1  0  0  0  0
 14 19  1  0  0  0  0
 16 17  2  0  0  0  0
 18 19  2  0  0  0  0
M  END
> <DATABASE_ID>
DB04833

> <DATABASE_NAME>
drugbank

> <SMILES>
CC1=CC=CC=C1N1C(C)=NC2=CC=CC=C2C1=O

> <INCHI_IDENTIFIER>
InChI=1S/C16H14N2O/c1-11-7-3-6-10-15(11)18-12(2)17-14-9-5-4-8-13(14)16(18)19/h3-10H,1-2H3

> <INCHI_KEY>
JEYCTXHKTXCGPB-UHFFFAOYSA-N

> <FORMULA>
C16H14N2O

> <MOLECULAR_WEIGHT>
250.2952

> <EXACT_MASS>
250.11061308

> <JCHEM_ACCEPTOR_COUNT>
2

> <JCHEM_AVERAGE_POLARIZABILITY>
27.315539103742815

> <JCHEM_BIOAVAILABILITY>
1

> <JCHEM_DONOR_COUNT>
0

> <JCHEM_FORMAL_CHARGE>
0

> <JCHEM_GHOSE_FILTER>
1

> <JCHEM_IUPAC>
2-methyl-3-(2-methylphenyl)-3,4-dihydroquinazolin-4-one

> <ALOGPS_LOGP>
2.54

> <JCHEM_LOGP>
3.1684964050000004

> <ALOGPS_LOGS>
-3.79

> <JCHEM_MDDR_LIKE_RULE>
0

> <JCHEM_NUMBER_OF_RINGS>
3

> <JCHEM_PHYSIOLOGICAL_CHARGE>
0

> <JCHEM_PKA_STRONGEST_BASIC>
-1.2210770832257203

> <JCHEM_POLAR_SURFACE_AREA>
32.67

> <JCHEM_REFRACTIVITY>
77.10540000000002

> <JCHEM_ROTATABLE_BOND_COUNT>
0

> <JCHEM_RULE_OF_FIVE>
1

> <ALOGPS_SOLUBILITY>
4.07e-02 g/l

> <JCHEM_TRADITIONAL_IUPAC>
sonal

> <JCHEM_VEBER_RULE>
1

> <DRUGBANK_ID>
DB04833

> <DRUG_GROUPS>
illicit; withdrawn

> <GENERIC_NAME>
Methaqualone

> <SYNONYMS>
metacualona; Methaqualone

> <INTERNATIONAL_BRANDS>
Quaalude

$$$$

  Mrv1718009041812582D          

 25 27  0  0  0  0            999 V2000
    3.6058   -0.2905    0.0000 C   0  0  0  0  0  0  0  0  0  0  0  0
    2.8874   -0.7245    0.0000 C   0  0  0  0  0  0  0  0  0  0  0  0
    2.1854   -0.2965    0.0000 C   0  0  0  0  0  0  0  0  0  0  0  0
    1.4582   -0.7458    0.0000 C   0  0  0  0  0  0  0  0  0  0  0  0
    0.7562   -0.3175    0.0000 C   0  0  0  0  0  0  0  0  0  0  0  0
    0.0332   -0.7659    0.0000 C   0  0  0  0  0  0  0  0  0  0  0  0
   -0.6697   -0.3338    0.0000 C   0  0  0  0  0  0  0  0  0  0  0  0
    4.3089   -0.7226    0.0000 O   0  0  0  0  0  0  0  0  0  0  0  0
    3.6247    0.5301    0.0000 O   0  0  0  0  0  0  0  0  0  0  0  0
   -1.3969   -0.7831    0.0000 N   0  0  0  0  0  0  0  0  0  0  0  0
   -2.3342    1.1040    0.0000 C   0  0  0  0  0  0  0  0  0  0  0  0
   -1.8691    0.4202    0.0000 C   0  0  0  0  0  0  0  0  0  0  0  0
   -2.0998   -0.3559    0.0000 C   0  0  0  0  0  0  0  0  0  0  0  0
   -2.8771   -0.6691    0.0000 C   0  0  0  0  0  0  0  0  0  0  0  0
   -3.5958   -0.2568    0.0000 C   0  0  0  0  0  0  0  0  0  0  0  0
   -3.7299    0.5683    0.0000 C   0  0  0  0  0  0  0  0  0  0  0  0
   -3.1454    1.1508    0.0000 C   0  0  0  0  0  0  0  0  0  0  0  0
   -1.0496    0.4860    0.0000 C   0  0  0  0  0  0  0  0  0  0  0  0
   -0.6908    1.2275    0.0000 C   0  0  0  0  0  0  0  0  0  0  0  0
   -1.1558    1.9073    0.0000 C   0  0  0  0  0  0  0  0  0  0  0  0
   -1.9795    1.8455    0.0000 C   0  0  0  0  0  0  0  0  0  0  0  0
   -4.3089   -0.6717    0.0000 C   0  0  0  0  0  0  0  0  0  0  0  0
   -4.3073   -1.4949    0.0000 C   0  0  0  0  0  0  0  0  0  0  0  0
   -3.5928   -1.9073    0.0000 C   0  0  0  0  0  0  0  0  0  0  0  0
   -2.8756   -1.4924    0.0000 C   0  0  0  0  0  0  0  0  0  0  0  0
  1  2  1  0  0  0  0
  2  3  1  0  0  0  0
  3  4  1  0  0  0  0
  4  5  1  0  0  0  0
  5  6  1  0  0  0  0
  6  7  1  0  0  0  0
  1  8  2  0  0  0  0
  1  9  1  0  0  0  0
 11 12  1  0  0  0  0
 12 13  1  0  0  0  0
 13 14  1  0  0  0  0
 14 15  1  0  0  0  0
 15 16  1  0  0  0  0
 16 17  1  0  0  0  0
 11 17  1  0  0  0  0
 18 19  1  0  0  0  0
 19 20  2  0  0  0  0
 20 21  1  0  0  0  0
 11 21  2  0  0  0  0
 12 18  2  0  0  0  0
 22 23  1  0  0  0  0
 23 24  2  0  0  0  0
 24 25  1  0  0  0  0
 14 25  2  0  0  0  0
 15 22  2  0  0  0  0
 10 13  1  0  0  0  0
  7 10  1  0  0  0  0
M  END
> <DATABASE_ID>
DB04836

> <DATABASE_NAME>
drugbank

> <SMILES>
OC(=O)CCCCCCNC1C2=CC=CC=C2CCC2=CC=CC=C12

> <INCHI_IDENTIFIER>
InChI=1S/C22H27NO2/c24-21(25)13-3-1-2-8-16-23-22-19-11-6-4-9-17(19)14-15-18-10-5-7-12-20(18)22/h4-7,9-12,22-23H,1-3,8,13-16H2,(H,24,25)

> <INCHI_KEY>
ONNOFKFOZAJDHT-UHFFFAOYSA-N

> <FORMULA>
C22H27NO2

> <MOLECULAR_WEIGHT>
337.463

> <EXACT_MASS>
337.204179113

> <JCHEM_ACCEPTOR_COUNT>
3

> <JCHEM_ATOM_COUNT>
52

> <JCHEM_AVERAGE_POLARIZABILITY>
39.70182722900067

> <JCHEM_BIOAVAILABILITY>
1

> <JCHEM_DONOR_COUNT>
2

> <JCHEM_FORMAL_CHARGE>
0

> <JCHEM_GHOSE_FILTER>
1

> <JCHEM_IUPAC>
7-({tricyclo[9.4.0.0^{3,8}]pentadeca-1(15),3,5,7,11,13-hexaen-2-yl}amino)heptanoic acid

> <ALOGPS_LOGP>
1.99

> <JCHEM_LOGP>
2.7434705815414273

> <ALOGPS_LOGS>
-6.04

> <JCHEM_MDDR_LIKE_RULE>
1

> <JCHEM_NUMBER_OF_RINGS>
3

> <JCHEM_PHYSIOLOGICAL_CHARGE>
0

> <JCHEM_PKA_STRONGEST_ACIDIC>
4.413066575668882

> <JCHEM_PKA_STRONGEST_BASIC>
9.173827850307378

> <JCHEM_POLAR_SURFACE_AREA>
49.33

> <JCHEM_REFRACTIVITY>
101.21100000000003

> <JCHEM_ROTATABLE_BOND_COUNT>
8

> <JCHEM_RULE_OF_FIVE>
1

> <ALOGPS_SOLUBILITY>
3.05e-04 g/l

> <JCHEM_TRADITIONAL_IUPAC>
7-{tricyclo[9.4.0.0^{3,8}]pentadeca-1(15),3,5,7,11,13-hexaen-2-ylamino}heptanoic acid

> <JCHEM_VEBER_RULE>
0

> <DRUGBANK_ID>
DB04836

> <DRUG_GROUPS>
illicit; withdrawn

> <GENERIC_NAME>
Amineptine

> <SYNONYMS>
Amineptino; Amineptinum

> <INTERNATIONAL_BRANDS>
Directim; Maneon; Neolior; Provector; Survector; Viaspera

> <SALTS>
Amineptine hydrochloride

$$$$

  Mrv1902 03081918182D          

 17 19  0  0  0  0            999 V2000
   -0.0796   -0.8250    0.0000 C   0  0  0  0  0  0  0  0  0  0  0  0
   -0.7941   -1.2375    0.0000 C   0  0  0  0  0  0  0  0  0  0  0  0
   -1.5086   -0.8250    0.0000 C   0  0  0  0  0  0  0  0  0  0  0  0
   -1.5086    0.0000    0.0000 C   0  0  0  0  0  0  0  0  0  0  0  0
   -0.7941    0.4125    0.0000 C   0  0  0  0  0  0  0  0  0  0  0  0
   -0.0796    0.0000    0.0000 C   0  0  0  0  0  0  0  0  0  0  0  0
    0.6347    0.4125    0.0000 C   0  0  0  0  0  0  0  0  0  0  0  0
    0.6347    1.2375    0.0000 O   0  0  0  0  0  0  0  0  0  0  0  0
    1.3492    0.0000    0.0000 N   0  0  0  0  0  0  0  0  0  0  0  0
    2.0637    0.4125    0.0000 C   0  0  0  0  0  0  0  0  0  0  0  0
    2.7781    0.0000    0.0000 C   0  0  0  0  0  0  0  0  0  0  0  0
    2.7781   -0.8250    0.0000 O   0  0  0  0  0  0  0  0  0  0  0  0
    2.0637   -1.2375    0.0000 C   0  0  0  0  0  0  0  0  0  0  0  0
    1.3492   -0.8250    0.0000 C   0  0  0  0  0  0  0  0  0  0  0  0
   -2.2932    0.2549    0.0000 N   0  0  0  0  0  0  0  0  0  0  0  0
   -2.7781   -0.4125    0.0000 O   0  0  0  0  0  0  0  0  0  0  0  0
   -2.2932   -1.0799    0.0000 N   0  0  0  0  0  0  0  0  0  0  0  0
  1  2  2  0  0  0  0
  2  3  1  0  0  0  0
  3  4  1  0  0  0  0
  4  5  1  0  0  0  0
  5  6  2  0  0  0  0
  1  6  1  0  0  0  0
  6  7  1  0  0  0  0
  7  8  2  0  0  0  0
  7  9  1  0  0  0  0
  9 10  1  0  0  0  0
 10 11  1  0  0  0  0
 11 12  1  0  0  0  0
 12 13  1  0  0  0  0
 13 14  1  0  0  0  0
  9 14  1  0  0  0  0
  4 15  2  0  0  0  0
 15 16  1  0  0  0  0
 16 17  1  0  0  0  0
  3 17  2  0  0  0  0
M  END
> <DATABASE_ID>
DB05047

> <DATABASE_NAME>
drugbank

> <SMILES>
O=C(N1CCOCC1)C1=CC2=NON=C2C=C1

> <INCHI_IDENTIFIER>
InChI=1S/C11H11N3O3/c15-11(14-3-5-16-6-4-14)8-1-2-9-10(7-8)13-17-12-9/h1-2,7H,3-6H2

> <INCHI_KEY>
KFRQROSRKSVROW-UHFFFAOYSA-N

> <FORMULA>
C11H11N3O3

> <MOLECULAR_WEIGHT>
233.227

> <EXACT_MASS>
233.080041226

> <JCHEM_ACCEPTOR_COUNT>
4

> <JCHEM_ATOM_COUNT>
28

> <JCHEM_AVERAGE_POLARIZABILITY>
22.408505771815076

> <JCHEM_BIOAVAILABILITY>
1

> <JCHEM_DONOR_COUNT>
0

> <JCHEM_FORMAL_CHARGE>
0

> <JCHEM_GHOSE_FILTER>
1

> <JCHEM_IUPAC>
5-(morpholine-4-carbonyl)-2,1,3-benzoxadiazole

> <ALOGPS_LOGP>
0.75

> <JCHEM_LOGP>
0.40276047699999973

> <ALOGPS_LOGS>
-1.40

> <JCHEM_MDDR_LIKE_RULE>
0

> <JCHEM_NUMBER_OF_RINGS>
3

> <JCHEM_PHYSIOLOGICAL_CHARGE>
0

> <JCHEM_PKA_STRONGEST_BASIC>
-1.3241598837914301

> <JCHEM_POLAR_SURFACE_AREA>
68.46000000000001

> <JCHEM_REFRACTIVITY>
60.08110000000001

> <JCHEM_ROTATABLE_BOND_COUNT>
1

> <JCHEM_RULE_OF_FIVE>
1

> <ALOGPS_SOLUBILITY>
9.23e+00 g/l

> <JCHEM_TRADITIONAL_IUPAC>
5-(morpholine-4-carbonyl)-2,1,3-benzoxadiazole

> <JCHEM_VEBER_RULE>
0

> <DRUGBANK_ID>
DB05047

> <DRUG_GROUPS>
illicit; investigational

> <GENERIC_NAME>
CX-717

$$$$

  Mrv1572012311520242D          

 28 31  0  0  0  0            999 V2000
    0.3452   -0.0868    0.0000 C   0  0  1  0  0  0  0  0  0  0  0  0
    1.0569   -0.5047    0.0000 C   0  0  2  0  0  0  0  0  0  0  0  0
   -0.3735   -0.4976    0.0000 C   0  0  2  0  0  0  0  0  0  0  0  0
    0.3523    0.7382    0.0000 C   0  0  0  0  0  0  0  0  0  0  0  0
    1.7686   -0.0939    0.0000 C   0  0  1  0  0  0  0  0  0  0  0  0
    1.0569   -1.3297    0.0000 C   0  0  0  0  0  0  0  0  0  0  0  0
   -0.3770   -1.3226    0.0000 C   0  0  1  0  0  0  0  0  0  0  0  0
   -1.0853   -0.0832    0.0000 C   0  0  0  0  0  0  0  0  0  0  0  0
    1.0711    1.1453    0.0000 C   0  0  0  0  0  0  0  0  0  0  0  0
    1.7793    0.7275    0.0000 C   0  0  2  0  0  0  0  0  0  0  0  0
    3.2345   -0.1115    0.0000 C   0  0  0  0  0  0  0  0  0  0  0  0
    0.3381   -1.7369    0.0000 C   0  0  0  0  0  0  0  0  0  0  0  0
   -1.0853   -1.7333    0.0000 C   0  0  0  0  0  0  0  0  0  0  0  0
   -1.8040   -0.4976    0.0000 C   0  0  0  0  0  0  0  0  0  0  0  0
    2.4946    1.1311    0.0000 C   0  0  1  0  0  0  0  0  0  0  0  0
    3.2027    0.7099    0.0000 C   0  0  0  0  0  0  0  0  0  0  0  0
   -1.8040   -1.3226    0.0000 C   0  0  0  0  0  0  0  0  0  0  0  0
   -2.5158   -0.0832    0.0000 C   0  0  0  0  0  0  0  0  0  0  0  0
    3.1744    1.5879    0.0000 C   0  0  0  0  0  0  0  0  0  0  0  0
    2.5052    2.1722    0.0000 O   0  0  0  0  0  0  0  0  0  0  0  0
   -2.5158   -1.7333    0.0000 O   0  0  0  0  0  0  0  0  0  0  0  0
   -3.2345   -0.4976    0.0000 O   0  0  0  0  0  0  0  0  0  0  0  0
    1.7793    1.5772    0.0000 C   0  0  0  0  0  0  0  0  0  0  0  0
    1.0569    0.3449    0.0000 H   0  0  0  0  0  0  0  0  0  0  0  0
   -0.3735    0.3519    0.0000 C   0  0  0  0  0  0  0  0  0  0  0  0
   -0.3770   -2.1722    0.0000 H   0  0  0  0  0  0  0  0  0  0  0  0
    0.3452   -0.9364    0.0000 H   0  0  0  0  0  0  0  0  0  0  0  0
    1.7686   -0.9435    0.0000 H   0  0  0  0  0  0  0  0  0  0  0  0
  1  2  1  0  0  0  0
  1  3  1  0  0  0  0
  1  4  1  0  0  0  0
  2  5  1  0  0  0  0
  2  6  1  0  0  0  0
  3  7  1  0  0  0  0
  3  8  1  0  0  0  0
  4  9  1  0  0  0  0
  5 10  1  0  0  0  0
  5 11  1  0  0  0  0
  6 12  1  0  0  0  0
  7 13  1  0  0  0  0
  8 14  1  0  0  0  0
 10 15  1  0  0  0  0
 11 16  1  0  0  0  0
 13 17  1  0  0  0  0
 14 18  2  0  0  0  0
 15 19  1  6  0  0  0
 15 20  1  1  0  0  0
 17 21  2  0  0  0  0
 18 22  1  0  0  0  0
  7 12  1  0  0  0  0
  9 10  1  0  0  0  0
 14 17  1  0  0  0  0
 15 16  1  0  0  0  0
 10 23  1  1  0  0  0
  2 24  1  1  0  0  0
  3 25  1  1  0  0  0
  7 26  1  6  0  0  0
  1 27  1  6  0  0  0
  5 28  1  6  0  0  0
M  END
> <DATABASE_ID>
DB06412

> <DATABASE_NAME>
drugbank

> <SMILES>
[H][C@@]12CC[C@](C)(O)[C@@]1(C)CC[C@@]1([H])[C@@]2([H])CC[C@@]2([H])CC(=O)\C(C[C@]12C)=C/O

> <INCHI_IDENTIFIER>
InChI=1S/C21H32O3/c1-19-11-13(12-22)18(23)10-14(19)4-5-15-16(19)6-8-20(2)17(15)7-9-21(20,3)24/h12,14-17,22,24H,4-11H2,1-3H3/b13-12-/t14-,15+,16-,17-,19-,20-,21-/m0/s1

> <INCHI_KEY>
ICMWWNHDUZJFDW-DHODBPELSA-N

> <FORMULA>
C21H32O3

> <MOLECULAR_WEIGHT>
332.484

> <EXACT_MASS>
332.23514489

> <JCHEM_ACCEPTOR_COUNT>
3

> <JCHEM_ATOM_COUNT>
56

> <JCHEM_AVERAGE_POLARIZABILITY>
38.841227530732965

> <JCHEM_BIOAVAILABILITY>
1

> <JCHEM_DONOR_COUNT>
2

> <JCHEM_FORMAL_CHARGE>
0

> <JCHEM_GHOSE_FILTER>
1

> <JCHEM_IUPAC>
(1S,2S,4Z,7S,10R,11S,14S,15S)-14-hydroxy-4-(hydroxymethylidene)-2,14,15-trimethyltetracyclo[8.7.0.0²,⁷.0¹¹,¹⁵]heptadecan-5-one

> <ALOGPS_LOGP>
3.17

> <JCHEM_LOGP>
3.5527294793333324

> <ALOGPS_LOGS>
-3.98

> <JCHEM_MDDR_LIKE_RULE>
0

> <JCHEM_NUMBER_OF_RINGS>
4

> <JCHEM_PHYSIOLOGICAL_CHARGE>
0

> <JCHEM_PKA_STRONGEST_ACIDIC>
8.86524572678327

> <JCHEM_PKA_STRONGEST_BASIC>
-0.528089057342846

> <JCHEM_POLAR_SURFACE_AREA>
57.53

> <JCHEM_REFRACTIVITY>
94.59689999999999

> <JCHEM_ROTATABLE_BOND_COUNT>
0

> <JCHEM_RULE_OF_FIVE>
1

> <ALOGPS_SOLUBILITY>
3.49e-02 g/l

> <JCHEM_TRADITIONAL_IUPAC>
anadrol

> <JCHEM_VEBER_RULE>
0

> <DRUGBANK_ID>
DB06412

> <DRUG_GROUPS>
approved; illicit

> <GENERIC_NAME>
Oxymetholone

> <SYNONYMS>
17β-Hydroxy-2-hydroxymethylidene-17α-methyl-3-androstanone; Oximetolona; Oxymetholon; Oxymétholone; Oxymetholone; Oxymetholonum

> <PRODUCTS>
Anadrol; Anadrol-50; Anapolon 50; Anapolon 50 Tablets 50mg

> <INTERNATIONAL_BRANDS>
Anapolon; Androlic; Hemogenin

$$$$

  Mrv0541 06161306532D          

 19 19  0  0  0  0            999 V2000
    5.2224    1.6005    0.0000 P   0  0  0  0  0  0  0  0  0  0  0  0
    3.7935   -0.0495    0.0000 O   0  0  0  0  0  0  0  0  0  0  0  0
    4.5080    1.1880    0.0000 O   0  0  0  0  0  0  0  0  0  0  0  0
    4.8099    2.3150    0.0000 O   0  0  0  0  0  0  0  0  0  0  0  0
    5.9370    2.0130    0.0000 O   0  0  0  0  0  0  0  0  0  0  0  0
    5.6350    0.8861    0.0000 O   0  0  0  0  0  0  0  0  0  0  0  0
    5.2224   -0.8745    0.0000 C   0  0  0  0  0  0  0  0  0  0  0  0
    2.3645   -0.8745    0.0000 C   0  0  0  0  0  0  0  0  0  0  0  0
    4.5080   -1.2870    0.0000 C   0  0  0  0  0  0  0  0  0  0  0  0
    3.0791   -1.2870    0.0000 C   0  0  0  0  0  0  0  0  0  0  0  0
    3.7935   -0.8745    0.0000 C   0  0  0  0  0  0  0  0  0  0  0  0
    4.5080   -2.1120    0.0000 C   0  0  0  0  0  0  0  0  0  0  0  0
    3.0791   -2.1120    0.0000 C   0  0  0  0  0  0  0  0  0  0  0  0
    5.9370   -1.2870    0.0000 C   0  0  0  0  0  0  0  0  0  0  0  0
    5.2224   -0.0495    0.0000 C   0  0  0  0  0  0  0  0  0  0  0  0
    1.6500   -1.2870    0.0000 C   0  0  0  0  0  0  0  0  0  0  0  0
    2.3645   -0.0495    0.0000 C   0  0  0  0  0  0  0  0  0  0  0  0
    3.7935   -2.5246    0.0000 C   0  0  0  0  0  0  0  0  0  0  0  0
    4.5080    0.3630    0.0000 C   0  0  0  0  0  0  0  0  0  0  0  0
  1  3  1  0  0  0  0
  1  4  1  0  0  0  0
  1  5  1  0  0  0  0
  1  6  2  0  0  0  0
  2 11  1  0  0  0  0
  2 19  1  0  0  0  0
  3 19  1  0  0  0  0
  7  9  1  0  0  0  0
  7 14  1  0  0  0  0
  7 15  1  0  0  0  0
  8 10  1  0  0  0  0
  8 16  1  0  0  0  0
  8 17  1  0  0  0  0
  9 11  2  0  0  0  0
  9 12  1  0  0  0  0
 10 11  1  0  0  0  0
 10 13  2  0  0  0  0
 12 18  2  0  0  0  0
 13 18  1  0  0  0  0
M  END
> <DATABASE_ID>
DB06716

> <DATABASE_NAME>
drugbank

> <SMILES>
CC(C)C1=CC=CC(C(C)C)=C1OCOP(O)(O)=O

> <INCHI_IDENTIFIER>
InChI=1S/C13H21O5P/c1-9(2)11-6-5-7-12(10(3)4)13(11)17-8-18-19(14,15)16/h5-7,9-10H,8H2,1-4H3,(H2,14,15,16)

> <INCHI_KEY>
QVNNONOFASOXQV-UHFFFAOYSA-N

> <FORMULA>
C13H21O5P

> <MOLECULAR_WEIGHT>
288.2766

> <EXACT_MASS>
288.112660294

> <JCHEM_ACCEPTOR_COUNT>
4

> <JCHEM_AVERAGE_POLARIZABILITY>
28.996919214934877

> <JCHEM_BIOAVAILABILITY>
1

> <JCHEM_DONOR_COUNT>
2

> <JCHEM_FORMAL_CHARGE>
0

> <JCHEM_GHOSE_FILTER>
1

> <JCHEM_IUPAC>
[2,6-bis(propan-2-yl)phenoxymethoxy]phosphonic acid

> <ALOGPS_LOGP>
2.23

> <JCHEM_LOGP>
3.602025750666667

> <ALOGPS_LOGS>
-2.98

> <JCHEM_MDDR_LIKE_RULE>
0

> <JCHEM_NUMBER_OF_RINGS>
1

> <JCHEM_PHYSIOLOGICAL_CHARGE>
-2

> <JCHEM_PKA>
6.495518029066194

> <JCHEM_PKA_STRONGEST_ACIDIC>
1.4372194016772424

> <JCHEM_PKA_STRONGEST_BASIC>
-4.973727492789276

> <JCHEM_POLAR_SURFACE_AREA>
75.99000000000001

> <JCHEM_REFRACTIVITY>
72.87750000000001

> <JCHEM_ROTATABLE_BOND_COUNT>
6

> <JCHEM_RULE_OF_FIVE>
1

> <ALOGPS_SOLUBILITY>
3.02e-01 g/l

> <JCHEM_TRADITIONAL_IUPAC>
fospropofol

> <JCHEM_VEBER_RULE>
0

> <DRUGBANK_ID>
DB06716

> <SECONDARY_ACCESSION_NUMBERS>
DB05279

> <DRUG_GROUPS>
approved; illicit; investigational

> <GENERIC_NAME>
Fospropofol

> <SYNONYMS>
Fospropofol

> <PRODUCTS>
Lusedra

> <INTERNATIONAL_BRANDS>
Aquavan

> <SALTS>
Fospropofol disodium

$$$$

  Mrv1909 02212020432D          

 35 38  0  0  0  0            999 V2000
   -2.3102   -0.8102    0.0000 C   0  0  1  0  0  0  0  0  0  0  0  0
   -2.9337   -1.2440    0.0000 C   0  0  1  0  0  0  0  0  0  0  0  0
   -2.2737   -0.0919    0.0000 C   0  0  2  0  0  0  0  0  0  0  0  0
   -1.4241   -1.0837    0.0000 C   0  0  0  0  0  0  0  0  0  0  0  0
   -3.6302   -0.8868    0.0000 C   0  0  1  0  0  0  0  0  0  0  0  0
   -2.9337   -2.0792    0.0000 C   0  0  0  0  0  0  0  0  0  0  0  0
   -2.9556    0.2764    0.0000 C   0  0  0  0  0  0  0  0  0  0  0  0
   -1.4533    0.2764    0.0000 C   0  0  2  0  0  0  0  0  0  0  0  0
   -2.4853    0.9109    0.0000 C   0  0  0  0  0  0  0  0  0  0  0  0
   -0.9464   -0.3616    0.0000 C   0  0  0  0  0  0  0  0  0  0  0  0
   -4.3449   -1.2987    0.0000 C   0  0  2  0  0  0  0  0  0  0  0  0
   -3.6302   -0.1063    0.0000 C   0  0  0  0  0  0  0  0  0  0  0  0
   -3.6083   -2.4839    0.0000 C   0  0  0  0  0  0  0  0  0  0  0  0
   -1.4906    1.1947    0.0000 O   0  0  0  0  0  0  0  0  0  0  0  0
   -4.3304   -2.0938    0.0000 C   0  0  0  0  0  0  0  0  0  0  0  0
   -5.0451   -0.9160    0.0000 C   0  0  0  0  0  0  0  0  0  0  0  0
   -5.0195   -2.5022    0.0000 C   0  0  0  0  0  0  0  0  0  0  0  0
   -5.7379   -1.3280    0.0000 C   0  0  0  0  0  0  0  0  0  0  0  0
   -5.7379   -2.1156    0.0000 C   0  0  0  0  0  0  0  0  0  0  0  0
   -6.4381   -2.5276    0.0000 O   0  0  0  0  0  0  0  0  0  0  0  0
   -1.7924   -1.7583    0.0000 H   0  0  0  0  0  0  0  0  0  0  0  0
   -2.9337   -0.2814    0.0000 H   0  0  0  0  0  0  0  0  0  0  0  0
   -3.6302   -1.9224    0.0000 H   0  0  0  0  0  0  0  0  0  0  0  0
   -4.3449   -0.2121    0.0000 H   0  0  0  0  0  0  0  0  0  0  0  0
   -0.6999    1.6553    0.0000 C   0  0  0  0  0  0  0  0  0  0  0  0
    0.0931    1.2014    0.0000 C   0  0  0  0  0  0  0  0  0  0  0  0
    0.8863    1.6597    0.0000 C   0  0  0  0  0  0  0  0  0  0  0  0
    1.6794    1.2058    0.0000 C   0  0  0  0  0  0  0  0  0  0  0  0
    2.4725    1.6641    0.0000 C   0  0  0  0  0  0  0  0  0  0  0  0
    3.2656    1.2103    0.0000 C   0  0  0  0  0  0  0  0  0  0  0  0
    4.0587    1.6685    0.0000 C   0  0  0  0  0  0  0  0  0  0  0  0
    4.8518    1.2146    0.0000 C   0  0  0  0  0  0  0  0  0  0  0  0
    5.6449    1.6729    0.0000 C   0  0  0  0  0  0  0  0  0  0  0  0
    6.4381    1.2190    0.0000 C   0  0  0  0  0  0  0  0  0  0  0  0
   -0.7033    2.5276    0.0000 O   0  0  0  0  0  0  0  0  0  0  0  0
  5 12  1  0  0  0  0
  6 13  1  0  0  0  0
  8 14  1  1  0  0  0
 11 15  1  0  0  0  0
 11 16  1  0  0  0  0
 15 17  2  0  0  0  0
 16 18  1  0  0  0  0
 17 19  1  0  0  0  0
 19 20  2  0  0  0  0
  7 12  1  0  0  0  0
  8 10  1  0  0  0  0
 13 15  1  0  0  0  0
 18 19  1  0  0  0  0
  1 21  1  6  0  0  0
  2 22  1  1  0  0  0
  5 23  1  6  0  0  0
 11 24  1  1  0  0  0
 14 25  1  0  0  0  0
  1  2  1  0  0  0  0
 25 26  1  0  0  0  0
  1  3  1  0  0  0  0
 26 27  1  0  0  0  0
  1  4  1  0  0  0  0
 27 28  1  0  0  0  0
  2  5  1  0  0  0  0
 28 29  1  0  0  0  0
  2  6  1  0  0  0  0
 29 30  1  0  0  0  0
  3  7  1  0  0  0  0
 30 31  1  0  0  0  0
  3  8  1  0  0  0  0
 31 32  1  0  0  0  0
  3  9  1  1  0  0  0
 32 33  1  0  0  0  0
  4 10  1  0  0  0  0
 33 34  1  0  0  0  0
  5 11  1  0  0  0  0
 25 35  2  0  0  0  0
M  END
> <DATABASE_ID>
DB08804

> <DATABASE_NAME>
drugbank

> <SMILES>
[H][C@@]12CC[C@H](OC(=O)CCCCCCCCC)[C@@]1(C)CC[C@]1([H])[C@@]3([H])CCC(=O)C=C3CC[C@@]21[H]

> <INCHI_IDENTIFIER>
InChI=1S/C28H44O3/c1-3-4-5-6-7-8-9-10-27(30)31-26-16-15-25-24-13-11-20-19-21(29)12-14-22(20)23(24)17-18-28(25,26)2/h19,22-26H,3-18H2,1-2H3/t22-,23+,24+,25-,26-,28-/m0/s1

> <INCHI_KEY>
JKWKMORAXJQQSR-MOPIKTETSA-N

> <FORMULA>
C28H44O3

> <MOLECULAR_WEIGHT>
428.6472

> <EXACT_MASS>
428.329045274

> <JCHEM_ACCEPTOR_COUNT>
2

> <JCHEM_ATOM_COUNT>
75

> <JCHEM_AVERAGE_NEUTRAL_MICROSPECIES_CHARGE>
1.870049110268722e-05

> <JCHEM_AVERAGE_POLARIZABILITY>
53.64278242272593

> <JCHEM_BIOAVAILABILITY>
1

> <JCHEM_DONOR_COUNT>
0

> <JCHEM_FORMAL_CHARGE>
0

> <JCHEM_GHOSE_FILTER>
0

> <JCHEM_IUPAC>
(1S,3aS,3bR,9aR,9bS,11aS)-11a-methyl-7-oxo-1H,2H,3H,3aH,3bH,4H,5H,7H,8H,9H,9aH,9bH,10H,11H,11aH-cyclopenta[a]phenanthren-1-yl decanoate

> <ALOGPS_LOGP>
5.96

> <JCHEM_LOGP>
7.31901809

> <ALOGPS_LOGS>
-6.44

> <JCHEM_MDDR_LIKE_RULE>
1

> <JCHEM_NEUTRAL_CHARGE>
0

> <JCHEM_NUMBER_OF_RINGS>
4

> <JCHEM_PHYSIOLOGICAL_CHARGE>
0

> <JCHEM_PKA_STRONGEST_ACIDIC>
18.251404295270742

> <JCHEM_PKA_STRONGEST_BASIC>
-4.7260392123281445

> <JCHEM_POLAR_SURFACE_AREA>
43.370000000000005

> <JCHEM_REFRACTIVITY>
125.94009999999997

> <JCHEM_ROTATABLE_BOND_COUNT>
10

> <JCHEM_RULE_OF_FIVE>
0

> <ALOGPS_SOLUBILITY>
1.57e-04 g/l

> <JCHEM_TRADITIONAL_IUPAC>
nandrolone decanoate

> <JCHEM_VEBER_RULE>
0

> <DRUGBANK_ID>
DB08804

> <DRUG_GROUPS>
approved; illicit

> <GENERIC_NAME>
Nandrolone decanoate

> <SYNONYMS>
19-nortestosterone decanoate; Nandrolone 17β-decanoate; Nandrolone decanoate

> <PRODUCTS>
Deca Durabolin Inj 100mg/ml; Deca Durabolin Inj 50mg/ml; Nandrolone Decanoate

> <INTERNATIONAL_BRANDS>
Deca-Durabol; Deca-Durabolin; Retabolil

$$$$

  Mrv1909 03022020442D          

 31 34  0  0  0  0            999 V2000
    2.8709    0.1400    0.0000 C   0  0  0  0  0  0  0  0  0  0  0  0
    3.5029   -0.3902    0.0000 C   0  0  0  0  0  0  0  0  0  0  0  0
    4.2781   -0.1080    0.0000 C   0  0  0  0  0  0  0  0  0  0  0  0
    3.0141    0.9524    0.0000 O   0  0  0  0  0  0  0  0  0  0  0  0
    2.0956   -0.1421    0.0000 N   0  0  0  0  0  0  0  0  0  0  0  0
    1.9523   -0.9546    0.0000 C   0  0  0  0  0  0  0  0  0  0  0  0
    2.5844   -1.4849    0.0000 C   0  0  0  0  0  0  0  0  0  0  0  0
    2.4411   -2.2973    0.0000 C   0  0  0  0  0  0  0  0  0  0  0  0
    1.6658   -2.5795    0.0000 C   0  0  0  0  0  0  0  0  0  0  0  0
    1.0338   -2.0492    0.0000 C   0  0  0  0  0  0  0  0  0  0  0  0
    1.1771   -1.2368    0.0000 C   0  0  0  0  0  0  0  0  0  0  0  0
   -0.5655    0.7063    0.0000 N   0  0  0  0  0  0  0  0  0  0  0  0
   -0.1531   -0.0081    0.0000 C   0  0  0  0  0  0  0  0  0  0  0  0
    0.6720   -0.0082    0.0000 C   0  0  0  0  0  0  0  0  0  0  0  0
    1.0845    0.7063    0.0000 C   0  0  0  0  0  0  0  0  0  0  0  0
    0.6720    1.4208    0.0000 C   0  0  0  0  0  0  0  0  0  0  0  0
   -0.1530    1.4208    0.0000 C   0  0  0  0  0  0  0  0  0  0  0  0
    1.7165    1.2367    0.0000 C   0  0  0  0  0  0  0  0  0  0  0  0
    1.5731    2.0490    0.0000 C   0  0  0  0  0  0  0  0  0  0  0  0
    2.2051    2.5795    0.0000 C   0  0  0  0  0  0  0  0  0  0  0  0
    2.9804    2.2971    0.0000 C   0  0  0  0  0  0  0  0  0  0  0  0
    3.1236    1.4847    0.0000 C   0  0  0  0  0  0  0  0  0  0  0  0
    2.4916    0.9544    0.0000 C   0  0  0  0  0  0  0  0  0  0  0  0
   -1.3904    0.7062    0.0000 C   0  0  0  0  0  0  0  0  0  0  0  0
   -1.8029    1.4208    0.0000 C   0  0  0  0  0  0  0  0  0  0  0  0
   -2.6280    1.4208    0.0000 C   0  0  0  0  0  0  0  0  0  0  0  0
   -3.0406    0.7062    0.0000 C   0  0  0  0  0  0  0  0  0  0  0  0
   -3.8656    0.7061    0.0000 C   0  0  0  0  0  0  0  0  0  0  0  0
   -4.2780    1.4206    0.0000 C   0  0  0  0  0  0  0  0  0  0  0  0
   -3.8656    2.1352    0.0000 C   0  0  0  0  0  0  0  0  0  0  0  0
   -3.0405    2.1351    0.0000 C   0  0  0  0  0  0  0  0  0  0  0  0
  1  2  1  0  0  0  0
  2  3  1  0  0  0  0
  1  4  2  0  0  0  0
  1  5  1  0  0  0  0
  6  7  1  0  0  0  0
  7  8  2  0  0  0  0
  8  9  1  0  0  0  0
  9 10  2  0  0  0  0
 10 11  1  0  0  0  0
  6 11  2  0  0  0  0
  5  6  1  0  0  0  0
 12 13  1  0  0  0  0
 13 14  1  0  0  0  0
 14 15  1  0  0  0  0
 15 16  1  0  0  0  0
 16 17  1  0  0  0  0
 12 17  1  0  0  0  0
 18 19  1  0  0  0  0
 19 20  2  0  0  0  0
 20 21  1  0  0  0  0
 21 22  2  0  0  0  0
 22 23  1  0  0  0  0
 18 23  2  0  0  0  0
 15 18  1  0  0  0  0
 24 25  1  0  0  0  0
 25 26  1  0  0  0  0
 26 27  1  0  0  0  0
 27 28  2  0  0  0  0
 28 29  1  0  0  0  0
 29 30  2  0  0  0  0
 30 31  1  0  0  0  0
 26 31  2  0  0  0  0
 12 24  1  0  0  0  0
  5 15  1  0  0  0  0
M  END
> <DATABASE_ID>
DB09168

> <DATABASE_NAME>
drugbank

> <SMILES>
CCC(=O)N(C1=CC=CC=C1)C1(CCN(CCC2=CC=CC=C2)CC1)C1=CC=CC=C1

> <INCHI_IDENTIFIER>
InChI=1S/C28H32N2O/c1-2-27(31)30(26-16-10-5-11-17-26)28(25-14-8-4-9-15-25)19-22-29(23-20-28)21-18-24-12-6-3-7-13-24/h3-17H,2,18-23H2,1H3

> <INCHI_KEY>
BXCJXJLHYMWMQU-UHFFFAOYSA-N

> <FORMULA>
C28H32N2O

> <MOLECULAR_WEIGHT>
412.577

> <EXACT_MASS>
412.251463658

> <JCHEM_ACCEPTOR_COUNT>
2

> <JCHEM_ATOM_COUNT>
63

> <JCHEM_AVERAGE_NEUTRAL_MICROSPECIES_CHARGE>
0.9912003345535175

> <JCHEM_AVERAGE_POLARIZABILITY>
48.33219584060138

> <JCHEM_BIOAVAILABILITY>
1

> <JCHEM_DONOR_COUNT>
0

> <JCHEM_FORMAL_CHARGE>
0

> <JCHEM_GHOSE_FILTER>
1

> <JCHEM_IUPAC>
N-phenyl-N-[4-phenyl-1-(2-phenylethyl)piperidin-4-yl]propanamide

> <ALOGPS_LOGP>
5.22

> <JCHEM_LOGP>
5.463740379333334

> <ALOGPS_LOGS>
-5.64

> <JCHEM_MDDR_LIKE_RULE>
1

> <JCHEM_NEUTRAL_CHARGE>
1

> <JCHEM_NUMBER_OF_RINGS>
4

> <JCHEM_PHYSIOLOGICAL_CHARGE>
1

> <JCHEM_PKA_STRONGEST_BASIC>
9.051695251163133

> <JCHEM_POLAR_SURFACE_AREA>
23.550000000000004

> <JCHEM_REFRACTIVITY>
127.98470000000002

> <JCHEM_ROTATABLE_BOND_COUNT>
7

> <JCHEM_RULE_OF_FIVE>
0

> <ALOGPS_SOLUBILITY>
9.54e-04 g/l

> <JCHEM_TRADITIONAL_IUPAC>
rabeximod

> <JCHEM_VEBER_RULE>
1

> <DRUGBANK_ID>
DB09168

> <DRUG_GROUPS>
illicit

> <GENERIC_NAME>
4-Phenylfentanyl

> <SYNONYMS>
N-(1-Phenethyl-4-phenyl-4-piperidyl)-N-phenyl-propanamide

$$$$

  Mrv1572010141516382D          

 28 30  0  0  0  0            999 V2000
   -1.0716    2.2687    0.0000 O   0  0  0  0  0  0  0  0  0  0  0  0
    0.3572   -0.2062    0.0000 N   0  0  0  0  0  0  0  0  0  0  0  0
    0.3572    2.2687    0.0000 N   0  0  0  0  0  0  0  0  0  0  0  0
   -0.3572    1.0312    0.0000 C   0  0  2  0  0  0  0  0  0  0  0  0
    0.3572    1.4437    0.0000 C   0  0  1  0  0  0  0  0  0  0  0  0
   -0.3572    0.2062    0.0000 C   0  0  0  0  0  0  0  0  0  0  0  0
    1.0716    1.0312    0.0000 C   0  0  0  0  0  0  0  0  0  0  0  0
    1.0716    0.2062    0.0000 C   0  0  0  0  0  0  0  0  0  0  0  0
   -1.0716    1.4437    0.0000 C   0  0  0  0  0  0  0  0  0  0  0  0
    0.3572   -1.0312    0.0000 C   0  0  0  0  0  0  0  0  0  0  0  0
   -0.3572   -1.4437    0.0000 C   0  0  0  0  0  0  0  0  0  0  0  0
    1.0716    2.6813    0.0000 C   0  0  0  0  0  0  0  0  0  0  0  0
   -0.3572    2.6813    0.0000 C   0  0  0  0  0  0  0  0  0  0  0  0
   -1.7862    1.0312    0.0000 C   0  0  0  0  0  0  0  0  0  0  0  0
   -0.3572    3.5063    0.0000 C   0  0  0  0  0  0  0  0  0  0  0  0
   -0.3572   -2.2687    0.0000 C   0  0  0  0  0  0  0  0  0  0  0  0
    1.0716    3.5063    0.0000 C   0  0  0  0  0  0  0  0  0  0  0  0
    1.7862    2.2687    0.0000 C   0  0  0  0  0  0  0  0  0  0  0  0
   -2.5007    1.4437    0.0000 C   0  0  0  0  0  0  0  0  0  0  0  0
   -1.0716    3.9188    0.0000 C   0  0  0  0  0  0  0  0  0  0  0  0
    1.7862    3.9188    0.0000 C   0  0  0  0  0  0  0  0  0  0  0  0
    2.5007    2.6813    0.0000 C   0  0  0  0  0  0  0  0  0  0  0  0
    0.3572   -2.6813    0.0000 C   0  0  0  0  0  0  0  0  0  0  0  0
   -1.0716   -2.6813    0.0000 C   0  0  0  0  0  0  0  0  0  0  0  0
    2.5007    3.5063    0.0000 C   0  0  0  0  0  0  0  0  0  0  0  0
    0.3572   -3.5063    0.0000 C   0  0  0  0  0  0  0  0  0  0  0  0
   -1.0716   -3.5063    0.0000 C   0  0  0  0  0  0  0  0  0  0  0  0
   -0.3572   -3.9188    0.0000 C   0  0  0  0  0  0  0  0  0  0  0  0
  1 13  2  0  0  0  0
  2  6  1  0  0  0  0
  2  8  1  0  0  0  0
  2 10  1  0  0  0  0
  5  3  1  6  0  0  0
  3 12  1  0  0  0  0
  3 13  1  0  0  0  0
  4  5  1  0  0  0  0
  4  6  1  0  0  0  0
  4  9  1  6  0  0  0
  5  7  1  0  0  0  0
  7  8  1  0  0  0  0
  9 14  1  0  0  0  0
 10 11  1  0  0  0  0
 11 16  1  0  0  0  0
 12 17  2  0  0  0  0
 12 18  1  0  0  0  0
 13 15  1  0  0  0  0
 14 19  2  0  0  0  0
 15 20  1  0  0  0  0
 16 23  2  0  0  0  0
 16 24  1  0  0  0  0
 17 21  1  0  0  0  0
 18 22  2  0  0  0  0
 21 25  2  0  0  0  0
 22 25  1  0  0  0  0
 23 26  1  0  0  0  0
 24 27  2  0  0  0  0
 26 28  2  0  0  0  0
 27 28  1  0  0  0  0
M  END
> <DATABASE_ID>
DB09169

> <DATABASE_NAME>
drugbank

> <SMILES>
CCC(=O)N([C@@H]1CCN(CCC2=CC=CC=C2)C[C@@H]1CC=C)C1=CC=CC=C1

> <INCHI_IDENTIFIER>
InChI=1S/C25H32N2O/c1-3-11-22-20-26(18-16-21-12-7-5-8-13-21)19-17-24(22)27(25(28)4-2)23-14-9-6-10-15-23/h3,5-10,12-15,22,24H,1,4,11,16-20H2,2H3/t22-,24+/m0/s1

> <INCHI_KEY>
BZXKQFFMDLTPJL-LADGPHEKSA-N

> <FORMULA>
C25H32N2O

> <MOLECULAR_WEIGHT>
376.544

> <EXACT_MASS>
376.251463658

> <JCHEM_ACCEPTOR_COUNT>
2

> <JCHEM_ATOM_COUNT>
60

> <JCHEM_AVERAGE_POLARIZABILITY>
44.61121805563677

> <JCHEM_BIOAVAILABILITY>
1

> <JCHEM_DONOR_COUNT>
0

> <JCHEM_FORMAL_CHARGE>
0

> <JCHEM_GHOSE_FILTER>
1

> <JCHEM_IUPAC>
N-phenyl-N-[(3S,4R)-1-(2-phenylethyl)-3-(prop-2-en-1-yl)piperidin-4-yl]propanamide

> <ALOGPS_LOGP>
4.94

> <JCHEM_LOGP>
4.879971451333333

> <ALOGPS_LOGS>
-5.32

> <JCHEM_MDDR_LIKE_RULE>
1

> <JCHEM_NUMBER_OF_RINGS>
3

> <JCHEM_PHYSIOLOGICAL_CHARGE>
1

> <JCHEM_PKA_STRONGEST_BASIC>
9.378924478467686

> <JCHEM_POLAR_SURFACE_AREA>
23.550000000000004

> <JCHEM_REFRACTIVITY>
117.14500000000004

> <JCHEM_ROTATABLE_BOND_COUNT>
8

> <JCHEM_RULE_OF_FIVE>
1

> <ALOGPS_SOLUBILITY>
1.79e-03 g/l

> <JCHEM_TRADITIONAL_IUPAC>
3-allylfentanyl

> <JCHEM_VEBER_RULE>
1

> <DRUGBANK_ID>
DB09169

> <DRUG_GROUPS>
illicit

> <GENERIC_NAME>
3-Allylfentanyl

$$$$

  Mrv1572010141516472D          

 25 27  0  0  0  0            999 V2000
   -0.7125    2.5124    0.0000 C   0  0  0  0  0  0  0  0  0  0  0  0
   -1.4700    2.0999    0.0000 C   0  0  0  0  0  0  0  0  0  0  0  0
   -2.1825    2.5124    0.0000 C   0  0  0  0  0  0  0  0  0  0  0  0
   -0.7125    3.3374    0.0000 O   0  0  0  0  0  0  0  0  0  0  0  0
    0.0000    2.0999    0.0000 N   0  0  0  0  0  0  0  0  0  0  0  0
    1.4324    3.7499    0.0000 C   0  0  0  0  0  0  0  0  0  0  0  0
    2.1825    3.3374    0.0000 C   0  0  0  0  0  0  0  0  0  0  0  0
    2.1825    2.5124    0.0000 C   0  0  0  0  0  0  0  0  0  0  0  0
    1.4699    2.0999    0.0000 C   0  0  0  0  0  0  0  0  0  0  0  0
    0.7124    2.5124    0.0000 C   0  0  0  0  0  0  0  0  0  0  0  0
    0.7124    3.3374    0.0000 C   0  0  0  0  0  0  0  0  0  0  0  0
    0.0000   -0.3675    0.0000 N   0  0  0  0  0  0  0  0  0  0  0  0
    0.7124    0.0000    0.0000 C   0  0  0  0  0  0  0  0  0  0  0  0
   -0.7125    0.0000    0.0000 C   0  0  0  0  0  0  0  0  0  0  0  0
    0.7124    0.8624    0.0000 C   0  0  0  0  0  0  0  0  0  0  0  0
   -0.7125    0.8624    0.0000 C   0  0  0  0  0  0  0  0  0  0  0  0
    0.0000    1.2750    0.0000 C   0  0  0  0  0  0  0  0  0  0  0  0
    0.0000   -1.2374    0.0000 C   0  0  0  0  0  0  0  0  0  0  0  0
    0.7124   -1.6499    0.0000 C   0  0  0  0  0  0  0  0  0  0  0  0
    1.4324   -1.2374    0.0000 O   0  0  0  0  0  0  0  0  0  0  0  0
    0.0450   -2.9699    0.0000 S   0  0  0  0  0  0  0  0  0  0  0  0
    0.3075   -3.7499    0.0000 C   0  0  0  0  0  0  0  0  0  0  0  0
    0.7124   -2.4749    0.0000 C   0  0  0  0  0  0  0  0  0  0  0  0
    1.3874   -2.9699    0.0000 C   0  0  0  0  0  0  0  0  0  0  0  0
    1.1250   -3.7499    0.0000 C   0  0  0  0  0  0  0  0  0  0  0  0
  1  2  1  0  0  0  0
  1  5  1  0  0  0  0
  1  4  2  0  0  0  0
  2  3  1  0  0  0  0
  5 10  1  0  0  0  0
  5 17  1  0  0  0  0
  6 11  2  0  0  0  0
  6  7  1  0  0  0  0
  7  8  2  0  0  0  0
  8  9  1  0  0  0  0
  9 10  2  0  0  0  0
 10 11  1  0  0  0  0
 12 13  1  0  0  0  0
 12 14  1  0  0  0  0
 12 18  1  0  0  0  0
 13 15  1  0  0  0  0
 14 16  1  0  0  0  0
 15 17  1  0  0  0  0
 16 17  1  0  0  0  0
 18 19  1  0  0  0  0
 19 20  1  0  0  0  0
 19 23  1  0  0  0  0
 21 22  1  0  0  0  0
 21 23  1  0  0  0  0
 22 25  2  0  0  0  0
 23 24  2  0  0  0  0
 24 25  1  0  0  0  0
M  END
> <DATABASE_ID>
DB09170

> <DATABASE_NAME>
drugbank

> <SMILES>
CCC(=O)N(C1CCN(CC(O)C2=CC=CS2)CC1)C1=CC=CC=C1

> <INCHI_IDENTIFIER>
InChI=1S/C20H26N2O2S/c1-2-20(24)22(16-7-4-3-5-8-16)17-10-12-21(13-11-17)15-18(23)19-9-6-14-25-19/h3-9,14,17-18,23H,2,10-13,15H2,1H3

> <INCHI_KEY>
GLAAETOTOUGGSB-UHFFFAOYSA-N

> <FORMULA>
C20H26N2O2S

> <MOLECULAR_WEIGHT>
358.5

> <EXACT_MASS>
358.171499259

> <JCHEM_ACCEPTOR_COUNT>
3

> <JCHEM_ATOM_COUNT>
51

> <JCHEM_AVERAGE_POLARIZABILITY>
40.590576609078326

> <JCHEM_BIOAVAILABILITY>
1

> <JCHEM_DONOR_COUNT>
1

> <JCHEM_FORMAL_CHARGE>
0

> <JCHEM_GHOSE_FILTER>
1

> <JCHEM_IUPAC>
N-{1-[2-hydroxy-2-(thiophen-2-yl)ethyl]piperidin-4-yl}-N-phenylpropanamide

> <ALOGPS_LOGP>
2.57

> <JCHEM_LOGP>
2.809383774333332

> <ALOGPS_LOGS>
-4.04

> <JCHEM_MDDR_LIKE_RULE>
1

> <JCHEM_NUMBER_OF_RINGS>
3

> <JCHEM_PHYSIOLOGICAL_CHARGE>
1

> <JCHEM_PKA_STRONGEST_ACIDIC>
13.6894975497454

> <JCHEM_PKA_STRONGEST_BASIC>
8.160812300488477

> <JCHEM_POLAR_SURFACE_AREA>
43.78

> <JCHEM_REFRACTIVITY>
101.57990000000001

> <JCHEM_ROTATABLE_BOND_COUNT>
6

> <JCHEM_RULE_OF_FIVE>
1

> <ALOGPS_SOLUBILITY>
3.26e-02 g/l

> <JCHEM_TRADITIONAL_IUPAC>
betahydroxythiofentanyl

> <JCHEM_VEBER_RULE>
0

> <DRUGBANK_ID>
DB09170

> <DRUG_GROUPS>
illicit

> <GENERIC_NAME>
β-Hydroxythiofentanyl

> <SYNONYMS>
beta-Hydroxythiofentanyl

$$$$

  Mrv1572010141516492D          

 26 28  0  0  0  0            999 V2000
   -1.7862    2.2687    0.0000 O   0  0  0  0  0  0  0  0  0  0  0  0
   -0.3571   -0.2062    0.0000 N   0  0  0  0  0  0  0  0  0  0  0  0
   -0.3571    2.2687    0.0000 N   0  0  0  0  0  0  0  0  0  0  0  0
   -0.3571    1.4437    0.0000 C   0  0  0  0  0  0  0  0  0  0  0  0
   -1.0717    1.0312    0.0000 C   0  0  0  0  0  0  0  0  0  0  0  0
    0.3572    1.0312    0.0000 C   0  0  0  0  0  0  0  0  0  0  0  0
   -1.0717    0.2062    0.0000 C   0  0  0  0  0  0  0  0  0  0  0  0
    0.3572    0.2062    0.0000 C   0  0  0  0  0  0  0  0  0  0  0  0
   -0.3571   -1.0312    0.0000 C   0  0  0  0  0  0  0  0  0  0  0  0
   -1.0717   -1.4437    0.0000 C   0  0  0  0  0  0  0  0  0  0  0  0
    0.3572    2.6813    0.0000 C   0  0  0  0  0  0  0  0  0  0  0  0
   -1.0717    2.6813    0.0000 C   0  0  0  0  0  0  0  0  0  0  0  0
   -1.0717   -2.2687    0.0000 C   0  0  0  0  0  0  0  0  0  0  0  0
   -1.7862   -1.0312    0.0000 C   0  0  0  0  0  0  0  0  0  0  0  0
   -1.0717    3.5063    0.0000 C   0  0  0  0  0  0  0  0  0  0  0  0
    0.3572    3.5063    0.0000 C   0  0  0  0  0  0  0  0  0  0  0  0
    1.0717    2.2687    0.0000 C   0  0  0  0  0  0  0  0  0  0  0  0
   -0.3571   -2.6813    0.0000 C   0  0  0  0  0  0  0  0  0  0  0  0
   -1.7862   -2.6813    0.0000 C   0  0  0  0  0  0  0  0  0  0  0  0
   -1.7862    3.9188    0.0000 C   0  0  0  0  0  0  0  0  0  0  0  0
    1.0717    3.9188    0.0000 C   0  0  0  0  0  0  0  0  0  0  0  0
    1.7862    2.6813    0.0000 C   0  0  0  0  0  0  0  0  0  0  0  0
   -0.3571   -3.5063    0.0000 C   0  0  0  0  0  0  0  0  0  0  0  0
   -1.7862   -3.5063    0.0000 C   0  0  0  0  0  0  0  0  0  0  0  0
    1.7862    3.5063    0.0000 C   0  0  0  0  0  0  0  0  0  0  0  0
   -1.0717   -3.9188    0.0000 C   0  0  0  0  0  0  0  0  0  0  0  0
  1 12  2  0  0  0  0
  2  7  1  0  0  0  0
  2  8  1  0  0  0  0
  2  9  1  0  0  0  0
  3  4  1  0  0  0  0
  3 11  1  0  0  0  0
  3 12  1  0  0  0  0
  4  5  1  0  0  0  0
  4  6  1  0  0  0  0
  5  7  1  0  0  0  0
  6  8  1  0  0  0  0
  9 10  1  0  0  0  0
 10 13  1  0  0  0  0
 10 14  1  0  0  0  0
 11 16  2  0  0  0  0
 11 17  1  0  0  0  0
 12 15  1  0  0  0  0
 13 18  2  0  0  0  0
 13 19  1  0  0  0  0
 15 20  1  0  0  0  0
 16 21  1  0  0  0  0
 17 22  2  0  0  0  0
 18 23  1  0  0  0  0
 19 24  2  0  0  0  0
 21 25  2  0  0  0  0
 22 25  1  0  0  0  0
 23 26  2  0  0  0  0
 24 26  1  0  0  0  0
M  END
> <DATABASE_ID>
DB09171

> <DATABASE_NAME>
drugbank

> <SMILES>
CCC(=O)N(C1CCN(CC(C)C2=CC=CC=C2)CC1)C1=CC=CC=C1

> <INCHI_IDENTIFIER>
InChI=1S/C23H30N2O/c1-3-23(26)25(21-12-8-5-9-13-21)22-14-16-24(17-15-22)18-19(2)20-10-6-4-7-11-20/h4-13,19,22H,3,14-18H2,1-2H3

> <INCHI_KEY>
UXIGUKSHASXDNI-UHFFFAOYSA-N

> <FORMULA>
C23H30N2O

> <MOLECULAR_WEIGHT>
350.506

> <EXACT_MASS>
350.235813594

> <JCHEM_ACCEPTOR_COUNT>
2

> <JCHEM_ATOM_COUNT>
56

> <JCHEM_AVERAGE_POLARIZABILITY>
40.70474244897021

> <JCHEM_BIOAVAILABILITY>
1

> <JCHEM_DONOR_COUNT>
0

> <JCHEM_FORMAL_CHARGE>
0

> <JCHEM_GHOSE_FILTER>
1

> <JCHEM_IUPAC>
N-phenyl-N-[1-(2-phenylpropyl)piperidin-4-yl]propanamide

> <ALOGPS_LOGP>
4.51

> <JCHEM_LOGP>
4.180471374666666

> <ALOGPS_LOGS>
-4.42

> <JCHEM_MDDR_LIKE_RULE>
1

> <JCHEM_NUMBER_OF_RINGS>
3

> <JCHEM_PHYSIOLOGICAL_CHARGE>
1

> <JCHEM_PKA_STRONGEST_BASIC>
9.072595311091144

> <JCHEM_POLAR_SURFACE_AREA>
23.550000000000004

> <JCHEM_REFRACTIVITY>
107.95410000000004

> <JCHEM_ROTATABLE_BOND_COUNT>
6

> <JCHEM_RULE_OF_FIVE>
1

> <ALOGPS_SOLUBILITY>
1.34e-02 g/l

> <JCHEM_TRADITIONAL_IUPAC>
betamethylfentanyl

> <JCHEM_VEBER_RULE>
1

> <DRUGBANK_ID>
DB09171

> <DRUG_GROUPS>
illicit

> <GENERIC_NAME>
β-Methylfentanyl

> <SYNONYMS>
beta-Methylfentanyl; Betamethylfentanyl

$$$$

  Mrv1572010141516512D          

 30 32  0  0  0  0            999 V2000
    1.4404    1.5515    0.0000 F   0  0  0  0  0  0  0  0  0  0  0  0
   -1.4174    2.3765    0.0000 O   0  0  0  0  0  0  0  0  0  0  0  0
   -1.4174    4.0265    0.0000 O   0  0  0  0  0  0  0  0  0  0  0  0
   -2.1549   -2.3909    0.0000 O   0  0  0  0  0  0  0  0  0  0  0  0
    0.0115   -0.0984    0.0000 N   0  0  0  0  0  0  0  0  0  0  0  0
    0.0115    2.3765    0.0000 N   0  0  0  0  0  0  0  0  0  0  0  0
   -0.7029   -2.1609    0.0000 N   0  0  0  0  0  0  0  0  0  0  0  0
   -0.0354   -2.6458    0.0000 N   0  0  0  0  0  0  0  0  0  0  0  0
   -1.1154   -3.4304    0.0000 N   0  0  0  0  0  0  0  0  0  0  0  0
   -0.2904   -3.4304    0.0000 N   0  0  0  0  0  0  0  0  0  0  0  0
    0.0115    1.5515    0.0000 C   0  0  2  0  0  0  0  0  0  0  0  0
   -0.7029    1.1390    0.0000 C   0  0  1  0  0  0  0  0  0  0  0  0
    0.7260    1.1390    0.0000 C   0  0  0  0  0  0  0  0  0  0  0  0
   -0.7029    0.3140    0.0000 C   0  0  0  0  0  0  0  0  0  0  0  0
    0.7260    0.3140    0.0000 C   0  0  0  0  0  0  0  0  0  0  0  0
   -1.4174    1.5515    0.0000 C   0  0  0  0  0  0  0  0  0  0  0  0
    0.0115   -0.9234    0.0000 C   0  0  0  0  0  0  0  0  0  0  0  0
   -0.7029   -1.3359    0.0000 C   0  0  0  0  0  0  0  0  0  0  0  0
    0.7260    2.7890    0.0000 C   0  0  0  0  0  0  0  0  0  0  0  0
   -0.7029    2.7890    0.0000 C   0  0  0  0  0  0  0  0  0  0  0  0
   -0.7029    3.6140    0.0000 C   0  0  0  0  0  0  0  0  0  0  0  0
    1.4404    2.3765    0.0000 C   0  0  0  0  0  0  0  0  0  0  0  0
    0.7260    3.6140    0.0000 C   0  0  0  0  0  0  0  0  0  0  0  0
   -1.3703   -2.6458    0.0000 C   0  0  0  0  0  0  0  0  0  0  0  0
    2.1549    2.7890    0.0000 C   0  0  0  0  0  0  0  0  0  0  0  0
    1.4404    4.0265    0.0000 C   0  0  0  0  0  0  0  0  0  0  0  0
    2.1549    3.6140    0.0000 C   0  0  0  0  0  0  0  0  0  0  0  0
   -1.6003   -4.0979    0.0000 C   0  0  0  0  0  0  0  0  0  0  0  0
   -1.4174    4.8515    0.0000 C   0  0  0  0  0  0  0  0  0  0  0  0
   -1.2648   -4.8515    0.0000 C   0  0  0  0  0  0  0  0  0  0  0  0
  1 22  1  0  0  0  0
  2 20  2  0  0  0  0
  3 21  1  0  0  0  0
  3 29  1  0  0  0  0
  4 24  2  0  0  0  0
  5 14  1  0  0  0  0
  5 15  1  0  0  0  0
  5 17  1  0  0  0  0
 11  6  1  1  0  0  0
  6 19  1  0  0  0  0
  6 20  1  0  0  0  0
  7  8  1  0  0  0  0
  7 18  1  0  0  0  0
  7 24  1  0  0  0  0
  8 10  2  0  0  0  0
  9 10  1  0  0  0  0
  9 24  1  0  0  0  0
  9 28  1  0  0  0  0
 11 12  1  0  0  0  0
 11 13  1  0  0  0  0
 12 14  1  0  0  0  0
 12 16  1  1  0  0  0
 13 15  1  0  0  0  0
 17 18  1  0  0  0  0
 19 22  1  0  0  0  0
 19 23  2  0  0  0  0
 20 21  1  0  0  0  0
 22 25  2  0  0  0  0
 23 26  1  0  0  0  0
 25 27  1  0  0  0  0
 26 27  2  0  0  0  0
 28 30  1  0  0  0  0
M  END
> <DATABASE_ID>
DB09172

> <DATABASE_NAME>
drugbank

> <SMILES>
CCN1N=NN(CCN2CC[C@@H]([C@H](C)C2)N(C(=O)COC)C2=CC=CC=C2F)C1=O

> <INCHI_IDENTIFIER>
InChI=1S/C20H29FN6O3/c1-4-25-20(29)26(23-22-25)12-11-24-10-9-17(15(2)13-24)27(19(28)14-30-3)18-8-6-5-7-16(18)21/h5-8,15,17H,4,9-14H2,1-3H3/t15-,17+/m1/s1

> <INCHI_KEY>
KKMGCTVJCQYQPV-WBVHZDCISA-N

> <FORMULA>
C20H29FN6O3

> <MOLECULAR_WEIGHT>
420.489

> <EXACT_MASS>
420.228516981

> <JCHEM_ACCEPTOR_COUNT>
6

> <JCHEM_ATOM_COUNT>
59

> <JCHEM_AVERAGE_POLARIZABILITY>
43.56832941492295

> <JCHEM_BIOAVAILABILITY>
1

> <JCHEM_DONOR_COUNT>
0

> <JCHEM_FORMAL_CHARGE>
0

> <JCHEM_GHOSE_FILTER>
1

> <JCHEM_IUPAC>
N-[(3R,4S)-1-[2-(4-ethyl-5-oxo-4,5-dihydro-1H-1,2,3,4-tetrazol-1-yl)ethyl]-3-methylpiperidin-4-yl]-N-(2-fluorophenyl)-2-methoxyacetamide

> <ALOGPS_LOGP>
2.07

> <JCHEM_LOGP>
2.6779486593333326

> <ALOGPS_LOGS>
-3.56

> <JCHEM_MDDR_LIKE_RULE>
1

> <JCHEM_NUMBER_OF_RINGS>
3

> <JCHEM_PHYSIOLOGICAL_CHARGE>
1

> <JCHEM_PKA_STRONGEST_ACIDIC>
15.806513085528369

> <JCHEM_PKA_STRONGEST_BASIC>
7.543906257466946

> <JCHEM_POLAR_SURFACE_AREA>
81.05000000000001

> <JCHEM_REFRACTIVITY>
114.11820000000003

> <JCHEM_ROTATABLE_BOND_COUNT>
8

> <JCHEM_RULE_OF_FIVE>
1

> <ALOGPS_SOLUBILITY>
1.17e-01 g/l

> <JCHEM_TRADITIONAL_IUPAC>
brifentanil

> <JCHEM_VEBER_RULE>
0

> <DRUGBANK_ID>
DB09172

> <DRUG_GROUPS>
illicit

> <GENERIC_NAME>
Brifentanil

$$$$

  Mrv1572010141516542D          

 26 28  0  0  0  0            999 V2000
   -1.7862    1.8562    0.0000 O   0  0  0  0  0  0  0  0  0  0  0  0
   -0.3571   -0.6187    0.0000 N   0  0  0  0  0  0  0  0  0  0  0  0
   -0.3571    1.8562    0.0000 N   0  0  0  0  0  0  0  0  0  0  0  0
   -0.3571    1.0312    0.0000 C   0  0  0  0  0  0  0  0  0  0  0  0
    0.3572    0.6187    0.0000 C   0  0  0  0  0  0  0  0  0  0  0  0
   -1.0717    0.6187    0.0000 C   0  0  0  0  0  0  0  0  0  0  0  0
    0.3572   -0.2062    0.0000 C   0  0  0  0  0  0  0  0  0  0  0  0
   -1.0717   -0.2062    0.0000 C   0  0  0  0  0  0  0  0  0  0  0  0
   -0.3571   -1.4437    0.0000 C   0  0  0  0  0  0  0  0  0  0  0  0
   -1.0717   -1.8562    0.0000 C   0  0  0  0  0  0  0  0  0  0  0  0
    0.3572    2.2687    0.0000 C   0  0  0  0  0  0  0  0  0  0  0  0
   -1.0717    2.2687    0.0000 C   0  0  0  0  0  0  0  0  0  0  0  0
   -1.0717    3.0938    0.0000 C   0  0  0  0  0  0  0  0  0  0  0  0
   -1.0717   -2.6813    0.0000 C   0  0  0  0  0  0  0  0  0  0  0  0
    0.3572    3.0938    0.0000 C   0  0  0  0  0  0  0  0  0  0  0  0
    1.0717    1.8562    0.0000 C   0  0  0  0  0  0  0  0  0  0  0  0
   -1.7862    3.5063    0.0000 C   0  0  0  0  0  0  0  0  0  0  0  0
   -0.3571   -3.0938    0.0000 C   0  0  0  0  0  0  0  0  0  0  0  0
   -1.7862   -3.0938    0.0000 C   0  0  0  0  0  0  0  0  0  0  0  0
    1.0717    3.5063    0.0000 C   0  0  0  0  0  0  0  0  0  0  0  0
    1.7862    2.2687    0.0000 C   0  0  0  0  0  0  0  0  0  0  0  0
   -1.7862    4.3313    0.0000 C   0  0  0  0  0  0  0  0  0  0  0  0
    1.7862    3.0938    0.0000 C   0  0  0  0  0  0  0  0  0  0  0  0
   -0.3571   -3.9188    0.0000 C   0  0  0  0  0  0  0  0  0  0  0  0
   -1.7862   -3.9188    0.0000 C   0  0  0  0  0  0  0  0  0  0  0  0
   -1.0717   -4.3313    0.0000 C   0  0  0  0  0  0  0  0  0  0  0  0
  1 12  2  0  0  0  0
  2  7  1  0  0  0  0
  2  8  1  0  0  0  0
  2  9  1  0  0  0  0
  3  4  1  0  0  0  0
  3 11  1  0  0  0  0
  3 12  1  0  0  0  0
  4  5  1  0  0  0  0
  4  6  1  0  0  0  0
  5  7  1  0  0  0  0
  6  8  1  0  0  0  0
  9 10  1  0  0  0  0
 10 14  1  0  0  0  0
 11 15  2  0  0  0  0
 11 16  1  0  0  0  0
 12 13  1  0  0  0  0
 13 17  1  0  0  0  0
 14 18  2  0  0  0  0
 14 19  1  0  0  0  0
 15 20  1  0  0  0  0
 16 21  2  0  0  0  0
 17 22  1  0  0  0  0
 18 24  1  0  0  0  0
 19 25  2  0  0  0  0
 20 23  2  0  0  0  0
 21 23  1  0  0  0  0
 24 26  2  0  0  0  0
 25 26  1  0  0  0  0
M  END
> <DATABASE_ID>
DB09173

> <DATABASE_NAME>
drugbank

> <SMILES>
CCCC(=O)N(C1CCN(CCC2=CC=CC=C2)CC1)C1=CC=CC=C1

> <INCHI_IDENTIFIER>
InChI=1S/C23H30N2O/c1-2-9-23(26)25(21-12-7-4-8-13-21)22-15-18-24(19-16-22)17-14-20-10-5-3-6-11-20/h3-8,10-13,22H,2,9,14-19H2,1H3

> <INCHI_KEY>
QQOMYEQLWQJRKK-UHFFFAOYSA-N

> <FORMULA>
C23H30N2O

> <MOLECULAR_WEIGHT>
350.506

> <EXACT_MASS>
350.235813594

> <JCHEM_ACCEPTOR_COUNT>
2

> <JCHEM_ATOM_COUNT>
56

> <JCHEM_AVERAGE_POLARIZABILITY>
42.032659814113224

> <JCHEM_BIOAVAILABILITY>
1

> <JCHEM_DONOR_COUNT>
0

> <JCHEM_FORMAL_CHARGE>
0

> <JCHEM_GHOSE_FILTER>
1

> <JCHEM_IUPAC>
N-phenyl-N-[1-(2-phenylethyl)piperidin-4-yl]butanamide

> <ALOGPS_LOGP>
4.44

> <JCHEM_LOGP>
4.2600672133333335

> <ALOGPS_LOGS>
-4.41

> <JCHEM_MDDR_LIKE_RULE>
1

> <JCHEM_NUMBER_OF_RINGS>
3

> <JCHEM_PHYSIOLOGICAL_CHARGE>
1

> <JCHEM_PKA_STRONGEST_BASIC>
8.767606300482685

> <JCHEM_POLAR_SURFACE_AREA>
23.550000000000004

> <JCHEM_REFRACTIVITY>
108.08350000000004

> <JCHEM_ROTATABLE_BOND_COUNT>
7

> <JCHEM_RULE_OF_FIVE>
1

> <ALOGPS_SOLUBILITY>
1.37e-02 g/l

> <JCHEM_TRADITIONAL_IUPAC>
N-phenyl-N-[1-(2-phenylethyl)piperidin-4-yl]butanamide

> <JCHEM_VEBER_RULE>
1

> <DRUGBANK_ID>
DB09173

> <DRUG_GROUPS>
illicit

> <GENERIC_NAME>
Butyrfentanyl

> <SYNONYMS>
Butyr-fentanyl; Butyrylfentanyl

$$$$

  Mrv1572010141516592D          

 30 32  0  0  0  0            999 V2000
   -1.8562    2.0849    0.0000 O   0  0  0  0  0  0  0  0  0  0  0  0
   -1.1744    2.8974    0.0000 O   0  0  0  0  0  0  0  0  0  0  0  0
   -0.6949    3.4277    0.0000 O   0  0  0  0  0  0  0  0  0  0  0  0
   -0.6187   -0.2795    0.0000 N   0  0  0  0  0  0  0  0  0  0  0  0
   -0.2062    2.0849    0.0000 N   0  0  0  0  0  0  0  0  0  0  0  0
   -0.6187    1.3704    0.0000 C   0  0  2  0  0  0  0  0  0  0  0  0
   -1.3332    0.9579    0.0000 C   0  0  1  0  0  0  0  0  0  0  0  0
    0.0957    0.9579    0.0000 C   0  0  0  0  0  0  0  0  0  0  0  0
   -1.3332    0.1329    0.0000 C   0  0  0  0  0  0  0  0  0  0  0  0
    0.0957    0.1329    0.0000 C   0  0  0  0  0  0  0  0  0  0  0  0
   -2.0477    1.3704    0.0000 C   0  0  0  0  0  0  0  0  0  0  0  0
   -1.0312    2.0849    0.0000 C   0  0  0  0  0  0  0  0  0  0  0  0
   -0.6187   -1.1045    0.0000 C   0  0  0  0  0  0  0  0  0  0  0  0
    0.6187    2.0849    0.0000 C   0  0  0  0  0  0  0  0  0  0  0  0
   -0.0630    2.8974    0.0000 C   0  0  0  0  0  0  0  0  0  0  0  0
   -1.3332   -1.5170    0.0000 C   0  0  0  0  0  0  0  0  0  0  0  0
    0.7122    3.1795    0.0000 C   0  0  0  0  0  0  0  0  0  0  0  0
    1.0312    2.7993    0.0000 C   0  0  0  0  0  0  0  0  0  0  0  0
    1.0312    1.3704    0.0000 C   0  0  0  0  0  0  0  0  0  0  0  0
   -1.3332   -2.3420    0.0000 C   0  0  0  0  0  0  0  0  0  0  0  0
   -2.2687    2.7993    0.0000 C   0  0  0  0  0  0  0  0  0  0  0  0
    0.8555    3.9920    0.0000 C   0  0  0  0  0  0  0  0  0  0  0  0
    1.8562    2.7993    0.0000 C   0  0  0  0  0  0  0  0  0  0  0  0
    1.8562    1.3704    0.0000 C   0  0  0  0  0  0  0  0  0  0  0  0
   -0.6187   -2.7545    0.0000 C   0  0  0  0  0  0  0  0  0  0  0  0
   -2.0477   -2.7545    0.0000 C   0  0  0  0  0  0  0  0  0  0  0  0
    2.2687    2.0849    0.0000 C   0  0  0  0  0  0  0  0  0  0  0  0
   -0.6187   -3.5795    0.0000 C   0  0  0  0  0  0  0  0  0  0  0  0
   -2.0477   -3.5795    0.0000 C   0  0  0  0  0  0  0  0  0  0  0  0
   -1.3332   -3.9920    0.0000 C   0  0  0  0  0  0  0  0  0  0  0  0
  1 12  1  0  0  0  0
  1 21  1  0  0  0  0
  2 12  2  0  0  0  0
  3 15  2  0  0  0  0
  4  9  1  0  0  0  0
  4 10  1  0  0  0  0
  4 13  1  0  0  0  0
  6  5  1  1  0  0  0
  5 14  1  0  0  0  0
  5 15  1  0  0  0  0
  6  7  1  0  0  0  0
  6  8  1  0  0  0  0
  6 12  1  0  0  0  0
  7  9  1  0  0  0  0
  7 11  1  1  0  0  0
  8 10  1  0  0  0  0
 13 16  1  0  0  0  0
 14 18  2  0  0  0  0
 14 19  1  0  0  0  0
 15 17  1  0  0  0  0
 16 20  1  0  0  0  0
 17 22  1  0  0  0  0
 18 23  1  0  0  0  0
 19 24  2  0  0  0  0
 20 25  2  0  0  0  0
 20 26  1  0  0  0  0
 23 27  2  0  0  0  0
 24 27  1  0  0  0  0
 25 28  1  0  0  0  0
 26 29  2  0  0  0  0
 28 30  2  0  0  0  0
 29 30  1  0  0  0  0
M  END
> <DATABASE_ID>
DB09174

> <DATABASE_NAME>
drugbank

> <SMILES>
CCC(=O)N(C1=CC=CC=C1)[C@]1(CCN(CCC2=CC=CC=C2)C[C@H]1C)C(=O)OC

> <INCHI_IDENTIFIER>
InChI=1S/C25H32N2O3/c1-4-23(28)27(22-13-9-6-10-14-22)25(24(29)30-3)16-18-26(19-20(25)2)17-15-21-11-7-5-8-12-21/h5-14,20H,4,15-19H2,1-3H3/t20-,25+/m1/s1

> <INCHI_KEY>
IMYHGORQCPYVBZ-NLFFAJNJSA-N

> <FORMULA>
C25H32N2O3

> <MOLECULAR_WEIGHT>
408.542

> <EXACT_MASS>
408.241292898

> <JCHEM_ACCEPTOR_COUNT>
3

> <JCHEM_ATOM_COUNT>
62

> <JCHEM_AVERAGE_POLARIZABILITY>
46.15438797527228

> <JCHEM_BIOAVAILABILITY>
1

> <JCHEM_DONOR_COUNT>
0

> <JCHEM_FORMAL_CHARGE>
0

> <JCHEM_GHOSE_FILTER>
1

> <JCHEM_IUPAC>
methyl (3R,4S)-3-methyl-1-(2-phenylethyl)-4-(N-phenylpropanamido)piperidine-4-carboxylate

> <ALOGPS_LOGP>
3.93

> <JCHEM_LOGP>
4.146846621

> <ALOGPS_LOGS>
-4.39

> <JCHEM_MDDR_LIKE_RULE>
1

> <JCHEM_NUMBER_OF_RINGS>
3

> <JCHEM_PHYSIOLOGICAL_CHARGE>
1

> <JCHEM_PKA_STRONGEST_BASIC>
8.35672672684067

> <JCHEM_POLAR_SURFACE_AREA>
49.85000000000001

> <JCHEM_REFRACTIVITY>
118.79240000000003

> <JCHEM_ROTATABLE_BOND_COUNT>
8

> <JCHEM_RULE_OF_FIVE>
1

> <ALOGPS_SOLUBILITY>
1.66e-02 g/l

> <JCHEM_TRADITIONAL_IUPAC>
lofentanil

> <JCHEM_VEBER_RULE>
0

> <DRUGBANK_ID>
DB09174

> <DRUG_GROUPS>
illicit

> <GENERIC_NAME>
Lofentanil

$$$$

  Mrv1572010141517112D          

 26 28  0  0  0  0            999 V2000
    0.3571    2.2686    0.0000 N   0  0  0  0  0  0  0  0  0  0  0  0
    1.0717    2.6811    0.0000 C   0  0  0  0  0  0  0  0  0  0  0  0
    0.3571   -0.2062    0.0000 N   0  0  0  0  0  0  0  0  0  0  0  0
    0.3571    1.4437    0.0000 C   0  0  0  0  0  0  0  0  0  0  0  0
    1.0717    1.0311    0.0000 C   0  0  0  0  0  0  0  0  0  0  0  0
   -0.3571    1.0311    0.0000 C   0  0  0  0  0  0  0  0  0  0  0  0
    1.0717    3.5061    0.0000 O   0  0  0  0  0  0  0  0  0  0  0  0
   -0.3571    2.6811    0.0000 C   0  0  0  0  0  0  0  0  0  0  0  0
   -0.3571    0.2061    0.0000 C   0  0  0  0  0  0  0  0  0  0  0  0
    1.0717    0.2061    0.0000 C   0  0  0  0  0  0  0  0  0  0  0  0
    0.3571   -1.0312    0.0000 C   0  0  0  0  0  0  0  0  0  0  0  0
    1.0717   -1.4438    0.0000 C   0  0  0  0  0  0  0  0  0  0  0  0
    1.0717   -2.2687    0.0000 C   0  0  0  0  0  0  0  0  0  0  0  0
    1.7861    2.2686    0.0000 C   0  0  0  0  0  0  0  0  0  0  0  0
   -1.0716    2.2686    0.0000 C   0  0  0  0  0  0  0  0  0  0  0  0
   -0.3571    3.5061    0.0000 C   0  0  0  0  0  0  0  0  0  0  0  0
    1.7861   -2.6812    0.0000 C   0  0  0  0  0  0  0  0  0  0  0  0
    0.3571   -2.6812    0.0000 C   0  0  0  0  0  0  0  0  0  0  0  0
   -1.7861    2.6811    0.0000 C   0  0  0  0  0  0  0  0  0  0  0  0
   -1.0716    3.9186    0.0000 C   0  0  0  0  0  0  0  0  0  0  0  0
    1.7861   -3.5062    0.0000 C   0  0  0  0  0  0  0  0  0  0  0  0
    0.3571   -3.5062    0.0000 C   0  0  0  0  0  0  0  0  0  0  0  0
   -1.7861    3.5061    0.0000 C   0  0  0  0  0  0  0  0  0  0  0  0
    1.0717   -3.9187    0.0000 C   0  0  0  0  0  0  0  0  0  0  0  0
    2.5006    2.6811    0.0000 C   0  0  0  0  0  0  0  0  0  0  0  0
   -2.5006    3.9187    0.0000 F   0  0  0  0  0  0  0  0  0  0  0  0
  2  1  1  0  0  0  0
  4  1  1  0  0  0  0
  8  1  1  0  0  0  0
  7  2  2  0  0  0  0
 14  2  1  0  0  0  0
  9  3  1  0  0  0  0
 11  3  1  0  0  0  0
 10  3  1  0  0  0  0
  5  4  1  0  0  0  0
  6  4  1  0  0  0  0
 10  5  1  0  0  0  0
  9  6  1  0  0  0  0
 15  8  1  0  0  0  0
 16  8  2  0  0  0  0
 12 11  1  0  0  0  0
 13 12  1  0  0  0  0
 17 13  1  0  0  0  0
 18 13  2  0  0  0  0
 19 15  2  0  0  0  0
 20 16  1  0  0  0  0
 21 17  2  0  0  0  0
 22 18  1  0  0  0  0
 23 19  1  0  0  0  0
 23 20  2  0  0  0  0
 24 21  1  0  0  0  0
 24 22  2  0  0  0  0
 14 25  1  0  0  0  0
 23 26  1  0  0  0  0
M  END
> <DATABASE_ID>
DB09177

> <DATABASE_NAME>
drugbank

> <SMILES>
CCC(=O)N(C1CCN(CCC2=CC=CC=C2)CC1)C1=CC=C(F)C=C1

> <INCHI_IDENTIFIER>
InChI=1S/C22H27FN2O/c1-2-22(26)25(20-10-8-19(23)9-11-20)21-13-16-24(17-14-21)15-12-18-6-4-3-5-7-18/h3-11,21H,2,12-17H2,1H3

> <INCHI_KEY>
KXUBAVLIJFTASZ-UHFFFAOYSA-N

> <FORMULA>
C22H27FN2O

> <MOLECULAR_WEIGHT>
354.469

> <EXACT_MASS>
354.21074166

> <JCHEM_ACCEPTOR_COUNT>
2

> <JCHEM_ATOM_COUNT>
53

> <JCHEM_AVERAGE_POLARIZABILITY>
40.405546475508125

> <JCHEM_BIOAVAILABILITY>
1

> <JCHEM_DONOR_COUNT>
0

> <JCHEM_FORMAL_CHARGE>
0

> <JCHEM_GHOSE_FILTER>
1

> <JCHEM_IUPAC>
N-(4-fluorophenyl)-N-[1-(2-phenylethyl)piperidin-4-yl]propanamide

> <ALOGPS_LOGP>
4.12

> <JCHEM_LOGP>
3.9582004846666665

> <ALOGPS_LOGS>
-4.33

> <JCHEM_MDDR_LIKE_RULE>
1

> <JCHEM_NUMBER_OF_RINGS>
3

> <JCHEM_PHYSIOLOGICAL_CHARGE>
1

> <JCHEM_PKA_STRONGEST_BASIC>
8.739386172922103

> <JCHEM_POLAR_SURFACE_AREA>
23.55

> <JCHEM_REFRACTIVITY>
103.69890000000004

> <JCHEM_ROTATABLE_BOND_COUNT>
6

> <JCHEM_RULE_OF_FIVE>
1

> <ALOGPS_SOLUBILITY>
1.67e-02 g/l

> <JCHEM_TRADITIONAL_IUPAC>
parafluorofentanyl

> <JCHEM_VEBER_RULE>
1

> <DRUGBANK_ID>
DB09177

> <DRUG_GROUPS>
illicit

> <GENERIC_NAME>
p-Fluorofentanyl

> <SYNONYMS>
4-Fluorofentanyl; Parafluorofentanyl

$$$$

  Mrv1572010141517142D          

 27 29  0  0  0  0            999 V2000
    1.7862    2.2687    0.0000 O   0  0  0  0  0  0  0  0  0  0  0  0
    0.3572   -0.2062    0.0000 N   0  0  0  0  0  0  0  0  0  0  0  0
    0.3572    2.2687    0.0000 N   0  0  0  0  0  0  0  0  0  0  0  0
    0.3572    1.4437    0.0000 C   0  0  0  0  0  0  0  0  0  0  0  0
    1.0717    1.0312    0.0000 C   0  0  0  0  0  0  0  0  0  0  0  0
   -0.3571    0.2062    0.0000 C   0  0  0  0  0  0  0  0  0  0  0  0
   -0.3571    1.0312    0.0000 C   0  0  0  0  0  0  0  0  0  0  0  0
    1.0717    0.2062    0.0000 C   0  0  0  0  0  0  0  0  0  0  0  0
    0.3572   -1.0312    0.0000 C   0  0  0  0  0  0  0  0  0  0  0  0
    1.7862    1.4437    0.0000 C   0  0  0  0  0  0  0  0  0  0  0  0
   -1.0717   -0.2062    0.0000 C   0  0  0  0  0  0  0  0  0  0  0  0
    1.0717   -1.4437    0.0000 C   0  0  0  0  0  0  0  0  0  0  0  0
   -0.3571    2.6813    0.0000 C   0  0  0  0  0  0  0  0  0  0  0  0
    1.0717    2.6813    0.0000 C   0  0  0  0  0  0  0  0  0  0  0  0
    1.0717   -2.2687    0.0000 C   0  0  0  0  0  0  0  0  0  0  0  0
    1.0717    3.5063    0.0000 C   0  0  0  0  0  0  0  0  0  0  0  0
   -1.0717    2.2687    0.0000 C   0  0  0  0  0  0  0  0  0  0  0  0
   -0.3571    3.5063    0.0000 C   0  0  0  0  0  0  0  0  0  0  0  0
    1.7862    3.9188    0.0000 C   0  0  0  0  0  0  0  0  0  0  0  0
    1.7862   -2.6813    0.0000 C   0  0  0  0  0  0  0  0  0  0  0  0
    0.3572   -2.6813    0.0000 C   0  0  0  0  0  0  0  0  0  0  0  0
   -1.7862    2.6813    0.0000 C   0  0  0  0  0  0  0  0  0  0  0  0
   -1.0717    3.9188    0.0000 C   0  0  0  0  0  0  0  0  0  0  0  0
   -1.7862    3.5063    0.0000 C   0  0  0  0  0  0  0  0  0  0  0  0
    1.7862   -3.5063    0.0000 C   0  0  0  0  0  0  0  0  0  0  0  0
    0.3572   -3.5063    0.0000 C   0  0  0  0  0  0  0  0  0  0  0  0
    1.0717   -3.9188    0.0000 C   0  0  0  0  0  0  0  0  0  0  0  0
  1 14  2  0  0  0  0
  2  6  1  0  0  0  0
  2  8  1  0  0  0  0
  2  9  1  0  0  0  0
  3  4  1  0  0  0  0
  3 13  1  0  0  0  0
  3 14  1  0  0  0  0
  4  5  1  0  0  0  0
  4  7  1  0  0  0  0
  5  8  1  0  0  0  0
  5 10  1  0  0  0  0
  6  7  1  0  0  0  0
  6 11  1  0  0  0  0
  9 12  1  0  0  0  0
 12 15  1  0  0  0  0
 13 17  2  0  0  0  0
 13 18  1  0  0  0  0
 14 16  1  0  0  0  0
 15 20  2  0  0  0  0
 15 21  1  0  0  0  0
 16 19  1  0  0  0  0
 17 22  1  0  0  0  0
 18 23  2  0  0  0  0
 20 25  1  0  0  0  0
 21 26  2  0  0  0  0
 22 24  2  0  0  0  0
 23 24  1  0  0  0  0
 25 27  2  0  0  0  0
 26 27  1  0  0  0  0
M  END
> <DATABASE_ID>
DB09178

> <DATABASE_NAME>
drugbank

> <SMILES>
CCC(=O)N(C1CC(C)N(CCC2=CC=CC=C2)CC1C)C1=CC=CC=C1

> <INCHI_IDENTIFIER>
InChI=1S/C24H32N2O/c1-4-24(27)26(22-13-9-6-10-14-22)23-17-20(3)25(18-19(23)2)16-15-21-11-7-5-8-12-21/h5-14,19-20,23H,4,15-18H2,1-3H3

> <INCHI_KEY>
ODPKHHGQKIYCTJ-UHFFFAOYSA-N

> <FORMULA>
C24H32N2O

> <MOLECULAR_WEIGHT>
364.533

> <EXACT_MASS>
364.251463658

> <JCHEM_ACCEPTOR_COUNT>
2

> <JCHEM_ATOM_COUNT>
59

> <JCHEM_AVERAGE_POLARIZABILITY>
43.45818218202394

> <JCHEM_BIOAVAILABILITY>
1

> <JCHEM_DONOR_COUNT>
0

> <JCHEM_FORMAL_CHARGE>
0

> <JCHEM_GHOSE_FILTER>
1

> <JCHEM_IUPAC>
N-[2,5-dimethyl-1-(2-phenylethyl)piperidin-4-yl]-N-phenylpropanamide

> <ALOGPS_LOGP>
4.74

> <JCHEM_LOGP>
4.711397132333332

> <ALOGPS_LOGS>
-4.62

> <JCHEM_MDDR_LIKE_RULE>
1

> <JCHEM_NUMBER_OF_RINGS>
3

> <JCHEM_PHYSIOLOGICAL_CHARGE>
1

> <JCHEM_PKA_STRONGEST_BASIC>
9.32137334671672

> <JCHEM_POLAR_SURFACE_AREA>
23.550000000000004

> <JCHEM_REFRACTIVITY>
112.31770000000004

> <JCHEM_ROTATABLE_BOND_COUNT>
6

> <JCHEM_RULE_OF_FIVE>
1

> <ALOGPS_SOLUBILITY>
8.66e-03 g/l

> <JCHEM_TRADITIONAL_IUPAC>
phenaridine

> <JCHEM_VEBER_RULE>
1

> <DRUGBANK_ID>
DB09178

> <DRUG_GROUPS>
illicit

> <GENERIC_NAME>
Phenaridine

> <SYNONYMS>
2,5-Dimethylfentanyl

$$$$

  Mrv1572010141517202D          

 24 26  0  0  0  0            999 V2000
    0.7387    2.4621    0.0000 C   0  0  0  0  0  0  0  0  0  0  0  0
    0.7386    3.2738    0.0000 O   0  0  0  0  0  0  0  0  0  0  0  0
    1.4161    2.0154    0.0000 C   0  0  0  0  0  0  0  0  0  0  0  0
    2.1426    2.4066    0.0000 C   0  0  0  0  0  0  0  0  0  0  0  0
   -0.0123    2.0578    0.0000 N   0  0  0  0  0  0  0  0  0  0  0  0
   -0.0123   -0.4172    0.0000 N   0  0  0  0  0  0  0  0  0  0  0  0
   -0.0123    1.2327    0.0000 C   0  0  0  0  0  0  0  0  0  0  0  0
    0.7022    0.8202    0.0000 C   0  0  0  0  0  0  0  0  0  0  0  0
   -0.7266    0.8202    0.0000 C   0  0  0  0  0  0  0  0  0  0  0  0
   -0.7142    2.4912    0.0000 C   0  0  0  0  0  0  0  0  0  0  0  0
   -0.7266   -0.0047    0.0000 C   0  0  0  0  0  0  0  0  0  0  0  0
    0.7022   -0.0047    0.0000 C   0  0  0  0  0  0  0  0  0  0  0  0
   -0.0123   -1.2424    0.0000 C   0  0  0  0  0  0  0  0  0  0  0  0
    0.7022   -1.6549    0.0000 C   0  0  0  0  0  0  0  0  0  0  0  0
    0.7022   -2.4799    0.0000 C   0  0  0  0  0  0  0  0  0  0  0  0
   -1.4406    2.1001    0.0000 C   0  0  0  0  0  0  0  0  0  0  0  0
   -0.6897    3.3159    0.0000 C   0  0  0  0  0  0  0  0  0  0  0  0
   -2.1426    2.5336    0.0000 C   0  0  0  0  0  0  0  0  0  0  0  0
   -1.3917    3.7495    0.0000 C   0  0  0  0  0  0  0  0  0  0  0  0
   -2.1182    3.3582    0.0000 C   0  0  0  0  0  0  0  0  0  0  0  0
    1.3696   -2.9648    0.0000 S   0  0  0  0  0  0  0  0  0  0  0  0
    1.1147   -3.7495    0.0000 C   0  0  0  0  0  0  0  0  0  0  0  0
    0.0347   -2.9649    0.0000 C   0  0  0  0  0  0  0  0  0  0  0  0
    0.2895   -3.7495    0.0000 C   0  0  0  0  0  0  0  0  0  0  0  0
  2  1  2  0  0  0  0
  3  1  1  0  0  0  0
  3  4  1  0  0  0  0
 10  5  1  0  0  0  0
 11  6  1  0  0  0  0
 13  6  1  0  0  0  0
 12  6  1  0  0  0  0
  8  7  1  0  0  0  0
  9  7  1  0  0  0  0
 12  8  1  0  0  0  0
 11  9  1  0  0  0  0
 16 10  2  0  0  0  0
 17 10  1  0  0  0  0
 14 13  1  0  0  0  0
 15 14  1  0  0  0  0
 18 16  1  0  0  0  0
 19 17  2  0  0  0  0
 20 18  2  0  0  0  0
 20 19  1  0  0  0  0
 21 15  1  0  0  0  0
 23 15  2  0  0  0  0
 22 21  1  0  0  0  0
 24 22  2  0  0  0  0
 24 23  1  0  0  0  0
  1  5  1  0  0  0  0
  5  7  1  0  0  0  0
M  END
> <DATABASE_ID>
DB09180

> <DATABASE_NAME>
drugbank

> <SMILES>
CCC(=O)N(C1CCN(CCC2=CC=CS2)CC1)C1=CC=CC=C1

> <INCHI_IDENTIFIER>
InChI=1S/C20H26N2OS/c1-2-20(23)22(17-7-4-3-5-8-17)18-10-13-21(14-11-18)15-12-19-9-6-16-24-19/h3-9,16,18H,2,10-15H2,1H3

> <INCHI_KEY>
YMRFZDHYDKZXPA-UHFFFAOYSA-N

> <FORMULA>
C20H26N2OS

> <MOLECULAR_WEIGHT>
342.5

> <EXACT_MASS>
342.176584639

> <JCHEM_ACCEPTOR_COUNT>
2

> <JCHEM_ATOM_COUNT>
50

> <JCHEM_AVERAGE_POLARIZABILITY>
39.50694068996546

> <JCHEM_BIOAVAILABILITY>
1

> <JCHEM_DONOR_COUNT>
0

> <JCHEM_FORMAL_CHARGE>
0

> <JCHEM_GHOSE_FILTER>
1

> <JCHEM_IUPAC>
N-phenyl-N-{1-[2-(thiophen-2-yl)ethyl]piperidin-4-yl}propanamide

> <ALOGPS_LOGP>
4.17

> <JCHEM_LOGP>
3.728379921333334

> <ALOGPS_LOGS>
-4.00

> <JCHEM_MDDR_LIKE_RULE>
1

> <JCHEM_NUMBER_OF_RINGS>
3

> <JCHEM_PHYSIOLOGICAL_CHARGE>
1

> <JCHEM_PKA_STRONGEST_BASIC>
8.755670359090354

> <JCHEM_POLAR_SURFACE_AREA>
23.550000000000004

> <JCHEM_REFRACTIVITY>
100.48280000000003

> <JCHEM_ROTATABLE_BOND_COUNT>
6

> <JCHEM_RULE_OF_FIVE>
1

> <ALOGPS_SOLUBILITY>
3.41e-02 g/l

> <JCHEM_TRADITIONAL_IUPAC>
thiofentanyl

> <JCHEM_VEBER_RULE>
1

> <DRUGBANK_ID>
DB09180

> <DRUG_GROUPS>
illicit

> <GENERIC_NAME>
Thienylfentanyl

> <SYNONYMS>
Thiofentanyl

$$$$

  Mrv1572010141517242D          

 24 26  0  0  0  0            999 V2000
   -1.4289    0.8250    0.0000 C   0  0  0  0  0  0  0  0  0  0  0  0
   -1.4289    1.6500    0.0000 C   0  0  0  0  0  0  0  0  0  0  0  0
   -0.7145    2.0625    0.0000 C   0  0  0  0  0  0  0  0  0  0  0  0
   -0.7145    2.8875    0.0000 O   0  0  0  0  0  0  0  0  0  0  0  0
    0.0000    1.6500    0.0000 N   0  0  0  0  0  0  0  0  0  0  0  0
    0.0000    0.8250    0.0000 C   0  0  0  0  0  0  0  0  0  0  0  0
    0.7144    0.4125    0.0000 C   0  0  0  0  0  0  0  0  0  0  0  0
    0.7144   -0.4124    0.0000 C   0  0  0  0  0  0  0  0  0  0  0  0
    0.0000   -0.8250    0.0000 N   0  0  0  0  0  0  0  0  0  0  0  0
    0.0000   -1.6499    0.0000 C   0  0  0  0  0  0  0  0  0  0  0  0
   -0.7145   -2.0624    0.0000 C   0  0  0  0  0  0  0  0  0  0  0  0
   -0.7145   -2.8874    0.0000 C   0  0  0  0  0  0  0  0  0  0  0  0
   -1.4289   -3.3000    0.0000 C   0  0  0  0  0  0  0  0  0  0  0  0
   -2.1434   -2.8874    0.0000 C   0  0  0  0  0  0  0  0  0  0  0  0
   -2.1434   -2.0624    0.0000 C   0  0  0  0  0  0  0  0  0  0  0  0
   -1.4289   -1.6499    0.0000 C   0  0  0  0  0  0  0  0  0  0  0  0
   -0.7145   -0.4124    0.0000 C   0  0  0  0  0  0  0  0  0  0  0  0
   -0.7145    0.4125    0.0000 C   0  0  0  0  0  0  0  0  0  0  0  0
    0.7144    2.0625    0.0000 C   0  0  0  0  0  0  0  0  0  0  0  0
    0.7144    2.8875    0.0000 C   0  0  0  0  0  0  0  0  0  0  0  0
    1.4289    3.3000    0.0000 C   0  0  0  0  0  0  0  0  0  0  0  0
    2.1434    2.8875    0.0000 C   0  0  0  0  0  0  0  0  0  0  0  0
    2.1434    2.0625    0.0000 C   0  0  0  0  0  0  0  0  0  0  0  0
    1.4289    1.6500    0.0000 C   0  0  0  0  0  0  0  0  0  0  0  0
  1  2  1  0  0  0  0
  2  3  1  0  0  0  0
  3  4  2  0  0  0  0
  3  5  1  0  0  0  0
  5  6  1  0  0  0  0
  6  7  1  0  0  0  0
  7  8  1  0  0  0  0
  8  9  1  0  0  0  0
  9 10  1  0  0  0  0
 10 11  1  0  0  0  0
 11 12  2  0  0  0  0
 12 13  1  0  0  0  0
 13 14  2  0  0  0  0
 14 15  1  0  0  0  0
 15 16  2  0  0  0  0
 11 16  1  0  0  0  0
  9 17  1  0  0  0  0
 17 18  1  0  0  0  0
  6 18  1  0  0  0  0
  5 19  1  0  0  0  0
 19 20  2  0  0  0  0
 20 21  1  0  0  0  0
 21 22  2  0  0  0  0
 22 23  1  0  0  0  0
 23 24  2  0  0  0  0
 19 24  1  0  0  0  0
M  END
> <DATABASE_ID>
DB09182

> <DATABASE_NAME>
drugbank

> <SMILES>
CCC(=O)N(C1CCN(CC2=CC=CC=C2)CC1)C1=CC=CC=C1

> <INCHI_IDENTIFIER>
InChI=1S/C21H26N2O/c1-2-21(24)23(19-11-7-4-8-12-19)20-13-15-22(16-14-20)17-18-9-5-3-6-10-18/h3-12,20H,2,13-17H2,1H3

> <INCHI_KEY>
POQDXIFVWVZVML-UHFFFAOYSA-N

> <FORMULA>
C21H26N2O

> <MOLECULAR_WEIGHT>
322.452

> <EXACT_MASS>
322.204513465

> <JCHEM_ACCEPTOR_COUNT>
2

> <JCHEM_ATOM_COUNT>
50

> <JCHEM_AVERAGE_POLARIZABILITY>
36.39611447488571

> <JCHEM_BIOAVAILABILITY>
1

> <JCHEM_DONOR_COUNT>
0

> <JCHEM_FORMAL_CHARGE>
0

> <JCHEM_GHOSE_FILTER>
1

> <JCHEM_IUPAC>
N-(1-benzylpiperidin-4-yl)-N-phenylpropanamide

> <ALOGPS_LOGP>
3.64

> <JCHEM_LOGP>
3.526837343333333

> <ALOGPS_LOGS>
-3.78

> <JCHEM_MDDR_LIKE_RULE>
0

> <JCHEM_NUMBER_OF_RINGS>
3

> <JCHEM_PHYSIOLOGICAL_CHARGE>
1

> <JCHEM_PKA_STRONGEST_BASIC>
8.183664423271713

> <JCHEM_POLAR_SURFACE_AREA>
23.550000000000004

> <JCHEM_REFRACTIVITY>
98.72750000000002

> <JCHEM_ROTATABLE_BOND_COUNT>
5

> <JCHEM_RULE_OF_FIVE>
1

> <ALOGPS_SOLUBILITY>
5.34e-02 g/l

> <JCHEM_TRADITIONAL_IUPAC>
N-(1-benzylpiperidin-4-yl)-N-phenylpropanamide

> <JCHEM_VEBER_RULE>
1

> <DRUGBANK_ID>
DB09182

> <DRUG_GROUPS>
illicit

> <GENERIC_NAME>
Benzylfentanyl

$$$$

  Mrv0541 06301311542D          

 32 37  0  0  0  0            999 V2000
    2.0466   -1.2228    0.0000 C   0  0  0  0  0  0  0  0  0  0  0  0
    4.3868    1.0276    0.0000 C   0  0  0  0  0  0  0  0  0  0  0  0
    0.8799    1.1165    0.0000 C   0  0  0  0  0  0  0  0  0  0  0  0
    0.5769    1.8564    0.0000 C   0  0  0  0  0  0  0  0  0  0  0  0
    4.6979    1.7920    0.0000 C   0  0  0  0  0  0  0  0  0  0  0  0
    1.3281    0.8602    0.0000 C   0  0  0  0  0  0  0  0  0  0  0  0
    1.1841   -0.0271    0.0000 C   0  0  0  0  0  0  0  0  0  0  0  0
    4.1246    6.0423    0.0000 C   0  0  0  0  0  0  0  0  0  0  0  0
    2.9907    5.1736    0.0000 C   0  0  0  0  0  0  0  0  0  0  0  0
    4.3099    4.6260    0.0000 C   0  0  0  0  0  0  0  0  0  0  0  0
    3.6231    6.6969    0.0000 C   0  0  0  0  0  0  0  0  0  0  0  0
    2.4892    5.8284    0.0000 C   0  0  0  0  0  0  0  0  0  0  0  0
    3.9937    3.8644    0.0000 C   0  0  0  0  0  0  0  0  0  0  0  0
    3.2627    0.1912    0.0000 C   0  0  0  0  0  0  0  0  0  0  0  0
    3.5617    0.9405    0.0000 C   0  0  0  0  0  0  0  0  0  0  0  0
    1.8504    0.9670    0.0000 C   0  0  1  0  0  0  0  0  0  0  0  0
    2.4480    0.1773    0.0000 C   0  0  2  0  0  0  0  0  0  0  0  0
    1.1358    2.4576    0.0000 C   0  0  1  0  0  0  0  0  0  0  0  0
    4.1790    2.4480    0.0000 C   0  0  0  0  0  0  0  0  0  0  0  0
    3.0422    1.5867    0.0000 C   0  0  0  0  0  0  0  0  0  0  0  0
    3.3321    2.3506    0.0000 C   0  0  0  0  0  0  0  0  0  0  0  0
    1.9574    2.2939    0.0000 C   0  0  1  0  0  0  0  0  0  0  0  0
    2.1644    1.4542    0.0000 C   0  0  2  0  0  0  0  0  0  0  0  0
    1.9072   -0.4099    0.0000 N   0  0  0  0  0  0  0  0  0  0  0  0
    3.8084    5.2807    0.0000 N   0  0  0  0  0  0  0  0  0  0  0  0
    0.8822    3.2423    0.0000 O   0  0  0  0  0  0  0  0  0  0  0  0
    2.8054    6.5900    0.0000 O   0  0  0  0  0  0  0  0  0  0  0  0
    4.4952    3.2097    0.0000 O   0  0  0  0  0  0  0  0  0  0  0  0
    2.6210    2.7949    0.0000 O   0  0  0  0  0  0  0  0  0  0  0  0
    1.4279    0.2588    0.0000 H   0  0  0  0  0  0  0  0  0  0  0  0
    2.7857   -0.5751    0.0000 H   0  0  0  0  0  0  0  0  0  0  0  0
    1.7734    3.0978    0.0000 H   0  0  0  0  0  0  0  0  0  0  0  0
  4  3  2  0  0  0  0
  5  2  2  0  0  0  0
  7  6  1  0  0  0  0
 11  8  1  0  0  0  0
 12  9  1  0  0  0  0
 13 10  1  0  0  0  0
 15  2  1  0  0  0  0
 15 14  1  0  0  0  0
 16  3  1  0  0  0  0
 17 14  1  0  0  0  0
 17 16  1  0  0  0  0
 18  4  1  0  0  0  0
 19  5  1  0  0  0  0
 20 15  2  0  0  0  0
 21 19  2  0  0  0  0
 21 20  1  0  0  0  0
 22 18  1  0  0  0  0
 23  6  1  0  0  0  0
 23 16  1  0  0  0  0
 23 20  1  1  0  0  0
 23 22  1  0  0  0  0
 24  1  1  0  0  0  0
 24  7  1  0  0  0  0
 24 17  1  0  0  0  0
 25  8  1  0  0  0  0
 25  9  1  0  0  0  0
 25 10  1  0  0  0  0
 18 26  1  6  0  0  0
 27 11  1  0  0  0  0
 27 12  1  0  0  0  0
 28 13  1  0  0  0  0
 28 19  1  0  0  0  0
 29 21  1  0  0  0  0
 29 22  1  0  0  0  0
 16 30  1  1  0  0  0
 17 31  1  6  0  0  0
 22 32  1  1  0  0  0
M  END
> <DATABASE_ID>
DB09209

> <DATABASE_NAME>
drugbank

> <SMILES>
[H][C@@]12OC3=C(OCCN4CCOCC4)C=CC4=C3[C@@]11CCN(C)[C@]([H])(C4)[C@]1([H])C=C[C@@H]2O

> <INCHI_IDENTIFIER>
InChI=1S/C23H30N2O4/c1-24-7-6-23-16-3-4-18(26)22(23)29-21-19(5-2-15(20(21)23)14-17(16)24)28-13-10-25-8-11-27-12-9-25/h2-5,16-18,22,26H,6-14H2,1H3/t16-,17+,18-,22-,23-/m0/s1

> <INCHI_KEY>
GPFAJKDEDBRFOS-FKQDBXSBSA-N

> <FORMULA>
C23H30N2O4

> <MOLECULAR_WEIGHT>
398.4953

> <EXACT_MASS>
398.220557458

> <JCHEM_ACCEPTOR_COUNT>
6

> <JCHEM_AVERAGE_POLARIZABILITY>
43.75949453006665

> <JCHEM_BIOAVAILABILITY>
1

> <JCHEM_DONOR_COUNT>
1

> <JCHEM_FORMAL_CHARGE>
0

> <JCHEM_GHOSE_FILTER>
1

> <JCHEM_IUPAC>
(1S,5R,13R,14S,17R)-4-methyl-10-[2-(morpholin-4-yl)ethoxy]-12-oxa-4-azapentacyclo[9.6.1.0¹,¹³.0⁵,¹⁷.0⁷,¹⁸]octadeca-7(18),8,10,15-tetraen-14-ol

> <ALOGPS_LOGP>
1.09

> <JCHEM_LOGP>
1.1430953536666657

> <ALOGPS_LOGS>
-2.91

> <JCHEM_MDDR_LIKE_RULE>
0

> <JCHEM_NUMBER_OF_RINGS>
6

> <JCHEM_PHYSIOLOGICAL_CHARGE>
1

> <JCHEM_PKA_STRONGEST_ACIDIC>
13.782739243212266

> <JCHEM_PKA_STRONGEST_BASIC>
9.190902538762007

> <JCHEM_POLAR_SURFACE_AREA>
54.400000000000006

> <JCHEM_REFRACTIVITY>
111.6983

> <JCHEM_ROTATABLE_BOND_COUNT>
4

> <JCHEM_RULE_OF_FIVE>
1

> <ALOGPS_SOLUBILITY>
4.89e-01 g/l

> <JCHEM_TRADITIONAL_IUPAC>
memine

> <JCHEM_VEBER_RULE>
0

> <DRUGBANK_ID>
DB09209

> <DRUG_GROUPS>
approved; illicit

> <GENERIC_NAME>
Pholcodine

> <SYNONYMS>
folcodina; Pholcodine

$$$$

  Mrv1572004221606592D          

 22 23  0  0  0  0            999 V2000
    1.5099    2.9980    0.0000 C   0  0  0  0  0  0  0  0  0  0  0  0
    6.0474    5.1414    0.0000 C   0  0  0  0  0  0  0  0  0  0  0  0
    6.0474    3.7125    0.0000 C   0  0  0  0  0  0  0  0  0  0  0  0
    2.3349    2.9980    0.0000 C   0  0  0  0  0  0  0  0  0  0  0  0
    3.5724    1.2375    0.0000 C   0  0  0  0  0  0  0  0  0  0  0  0
    3.5724    6.1875    0.0000 C   0  0  0  0  0  0  0  0  0  0  0  0
    4.2868    1.6500    0.0000 C   0  0  0  0  0  0  0  0  0  0  0  0
    2.8579    1.6500    0.0000 C   0  0  0  0  0  0  0  0  0  0  0  0
    2.8579    5.7750    0.0000 C   0  0  0  0  0  0  0  0  0  0  0  0
    4.2868    5.7750    0.0000 C   0  0  0  0  0  0  0  0  0  0  0  0
    4.2868    2.4750    0.0000 C   0  0  0  0  0  0  0  0  0  0  0  0
    2.8579    2.4750    0.0000 C   0  0  0  0  0  0  0  0  0  0  0  0
    2.8579    4.9500    0.0000 C   0  0  0  0  0  0  0  0  0  0  0  0
    4.2868    4.9500    0.0000 C   0  0  0  0  0  0  0  0  0  0  0  0
    4.3974    3.7125    0.0000 C   0  0  0  0  0  0  0  0  0  0  0  0
    4.8099    4.4270    0.0000 C   0  0  0  0  0  0  0  0  0  0  0  0
    3.5724    2.8875    0.0000 C   0  0  0  0  0  0  0  0  0  0  0  0
    3.5724    4.5375    0.0000 C   0  0  0  0  0  0  0  0  0  0  0  0
    2.7474    3.7125    0.0000 C   0  0  0  0  0  0  0  0  0  0  0  0
    3.5724    3.7125    0.0000 C   0  0  0  0  0  0  0  0  0  0  0  0
    5.6349    4.4270    0.0000 N   0  0  0  0  0  0  0  0  0  0  0  0
    2.3349    4.4270    0.0000 O   0  0  0  0  0  0  0  0  0  0  0  0
  4  1  1  0  0  0  0
  7  5  2  0  0  0  0
  8  5  1  0  0  0  0
  9  6  2  0  0  0  0
 10  6  1  0  0  0  0
 11  7  1  0  0  0  0
 12  8  2  0  0  0  0
 13  9  1  0  0  0  0
 14 10  2  0  0  0  0
 16 15  1  0  0  0  0
 17 11  2  0  0  0  0
 17 12  1  0  0  0  0
 18 13  2  0  0  0  0
 18 14  1  0  0  0  0
 19  4  1  0  0  0  0
 20 15  1  0  0  0  0
 20 17  1  0  0  0  0
 20 18  1  0  0  0  0
 20 19  1  0  0  0  0
 21  2  1  0  0  0  0
 21  3  1  0  0  0  0
 21 16  1  0  0  0  0
 22 19  2  0  0  0  0
M  END
> <DATABASE_ID>
DB11609

> <DATABASE_NAME>
drugbank

> <SMILES>
CCC(=O)C(CCN(C)C)(C1=CC=CC=C1)C1=CC=CC=C1

> <INCHI_IDENTIFIER>
InChI=1S/C20H25NO/c1-4-19(22)20(15-16-21(2)3,17-11-7-5-8-12-17)18-13-9-6-10-14-18/h5-14H,4,15-16H2,1-3H3

> <INCHI_KEY>
WCJFBSYALHQBSK-UHFFFAOYSA-N

> <FORMULA>
C20H25NO

> <MOLECULAR_WEIGHT>
295.426

> <EXACT_MASS>
295.193614429

> <JCHEM_ACCEPTOR_COUNT>
2

> <JCHEM_ATOM_COUNT>
47

> <JCHEM_AVERAGE_POLARIZABILITY>
34.66915925141657

> <JCHEM_BIOAVAILABILITY>
1

> <JCHEM_DONOR_COUNT>
0

> <JCHEM_FORMAL_CHARGE>
0

> <JCHEM_GHOSE_FILTER>
1

> <JCHEM_IUPAC>
6-(dimethylamino)-4,4-diphenylhexan-3-one

> <ALOGPS_LOGP>
3.84

> <JCHEM_LOGP>
4.590596610666666

> <ALOGPS_LOGS>
-4.60

> <JCHEM_MDDR_LIKE_RULE>
0

> <JCHEM_NUMBER_OF_RINGS>
2

> <JCHEM_PHYSIOLOGICAL_CHARGE>
1

> <JCHEM_PKA_STRONGEST_ACIDIC>
18.795526084058817

> <JCHEM_PKA_STRONGEST_BASIC>
8.830973823181637

> <JCHEM_POLAR_SURFACE_AREA>
20.310000000000002

> <JCHEM_REFRACTIVITY>
92.85009999999998

> <JCHEM_ROTATABLE_BOND_COUNT>
7

> <JCHEM_RULE_OF_FIVE>
1

> <ALOGPS_SOLUBILITY>
7.37e-03 g/l

> <JCHEM_TRADITIONAL_IUPAC>
normethadone

> <JCHEM_VEBER_RULE>
1

> <DRUGBANK_ID>
DB11609

> <DRUG_GROUPS>
approved; illicit

> <GENERIC_NAME>
Normethadone

> <SYNONYMS>
6-dimethylamino-4,4-diphenyl-3-hexanone; Desmethylmethadone; Isomethadone I; Normethadone

> <PRODUCTS>
Cophylac; Cophylac Drops

> <SALTS>
Normethadone hydrochloride

$$$$

  Mrv1652312151620452D          

 19 20  0  0  0  0            999 V2000
    0.4021   -0.1695    0.0000 C   0  0  2  0  0  0  0  0  0  0  0  0
    1.1238    0.2471    0.0000 C   0  0  1  0  0  0  0  0  0  0  0  0
   -0.3100    0.2471    0.0000 C   0  0  0  0  0  0  0  0  0  0  0  0
   -0.0047   -0.8817    0.0000 O   0  0  0  0  0  0  0  0  0  0  0  0
    0.4117    1.4826    0.0000 N   0  0  0  0  0  0  0  0  0  0  0  0
    1.1238    1.0659    0.0000 C   0  0  0  0  0  0  0  0  0  0  0  0
   -0.8236   -0.8817    0.0000 C   0  0  0  0  0  0  0  0  0  0  0  0
    0.8235   -0.8817    0.0000 C   0  0  0  0  0  0  0  0  0  0  0  0
   -0.3100    1.0659    0.0000 C   0  0  0  0  0  0  0  0  0  0  0  0
   -1.2306   -0.1598    0.0000 O   0  0  0  0  0  0  0  0  0  0  0  0
    1.8264   -0.1695    0.0000 C   0  0  0  0  0  0  0  0  0  0  0  0
    0.4117    2.3109    0.0000 C   0  0  0  0  0  0  0  0  0  0  0  0
   -1.2402   -1.5939    0.0000 C   0  0  0  0  0  0  0  0  0  0  0  0
    0.4021   -1.5987    0.0000 C   0  0  0  0  0  0  0  0  0  0  0  0
    1.6471   -0.8817    0.0000 C   0  0  0  0  0  0  0  0  0  0  0  0
   -2.0590   -1.5939    0.0000 C   0  0  0  0  0  0  0  0  0  0  0  0
    0.8235   -2.3109    0.0000 C   0  0  0  0  0  0  0  0  0  0  0  0
    2.0590   -1.5987    0.0000 C   0  0  0  0  0  0  0  0  0  0  0  0
    1.6471   -2.3109    0.0000 C   0  0  0  0  0  0  0  0  0  0  0  0
  2  1  1  0  0  0  0
  3  1  1  0  0  0  0
  1  4  1  1  0  0  0
  5  9  1  0  0  0  0
  6  2  1  0  0  0  0
  7  4  1  0  0  0  0
  8  1  1  0  0  0  0
  9  3  1  0  0  0  0
 10  7  2  0  0  0  0
  2 11  1  1  0  0  0
 12  5  1  0  0  0  0
 13  7  1  0  0  0  0
 14  8  2  0  0  0  0
 15  8  1  0  0  0  0
 16 13  1  0  0  0  0
 17 14  1  0  0  0  0
 18 15  2  0  0  0  0
 19 17  2  0  0  0  0
  5  6  1  0  0  0  0
 18 19  1  0  0  0  0
M  END
> <DATABASE_ID>
DB13160

> <DATABASE_NAME>
drugbank

> <SMILES>
CCC(=O)O[C@]1(CCN(C)C[C@H]1C)C1=CC=CC=C1

> <INCHI_IDENTIFIER>
InChI=1S/C16H23NO2/c1-4-15(18)19-16(14-8-6-5-7-9-14)10-11-17(3)12-13(16)2/h5-9,13H,4,10-12H2,1-3H3/t13-,16+/m1/s1

> <INCHI_KEY>
UVAZQQHAVMNMHE-CJNGLKHVSA-N

> <FORMULA>
C16H23NO2

> <MOLECULAR_WEIGHT>
261.365

> <EXACT_MASS>
261.172878985

> <JCHEM_ACCEPTOR_COUNT>
2

> <JCHEM_ATOM_COUNT>
42

> <JCHEM_AVERAGE_POLARIZABILITY>
29.825699991939075

> <JCHEM_BIOAVAILABILITY>
1

> <JCHEM_DONOR_COUNT>
0

> <JCHEM_FORMAL_CHARGE>
0

> <JCHEM_GHOSE_FILTER>
1

> <JCHEM_IUPAC>
(3R,4S)-1,3-dimethyl-4-phenylpiperidin-4-yl propanoate

> <ALOGPS_LOGP>
3.24

> <JCHEM_LOGP>
2.7774557059999987

> <ALOGPS_LOGS>
-2.74

> <JCHEM_MDDR_LIKE_RULE>
0

> <JCHEM_NUMBER_OF_RINGS>
2

> <JCHEM_PHYSIOLOGICAL_CHARGE>
1

> <JCHEM_PKA_STRONGEST_BASIC>
8.898816971383985

> <JCHEM_POLAR_SURFACE_AREA>
29.54

> <JCHEM_REFRACTIVITY>
76.40940000000002

> <JCHEM_ROTATABLE_BOND_COUNT>
4

> <JCHEM_RULE_OF_FIVE>
1

> <ALOGPS_SOLUBILITY>
4.75e-01 g/l

> <JCHEM_TRADITIONAL_IUPAC>
prodine

> <JCHEM_VEBER_RULE>
1

> <DRUGBANK_ID>
DB13160

> <DRUG_GROUPS>
illicit

> <GENERIC_NAME>
Alphaprodine

> <SYNONYMS>
dl-alpha-prodine

$$$$

  Mrv1718004161814122D          

 16 17  0  0  0  0            999 V2000
   -1.4498   -0.6891    0.0000 C   0  0  0  0  0  0  0  0  0  0  0  0
   -1.4509   -1.5124    0.0000 C   0  0  0  0  0  0  0  0  0  0  0  0
   -0.7403   -1.9253    0.0000 C   0  0  0  0  0  0  0  0  0  0  0  0
   -0.7421   -0.2804    0.0000 C   0  0  0  0  0  0  0  0  0  0  0  0
    0.7610   -1.7722    0.0000 N   0  0  0  0  0  0  0  0  0  0  0  0
   -0.0308   -0.6855    0.0000 C   0  0  0  0  0  0  0  0  0  0  0  0
   -0.0291   -1.5160    0.0000 C   0  0  0  0  0  0  0  0  0  0  0  0
    0.7583   -0.4300    0.0000 C   0  0  0  0  0  0  0  0  0  0  0  0
    1.2517   -1.1027    0.0000 C   0  0  0  0  0  0  0  0  0  0  0  0
   -2.1641   -0.2760    0.0000 O   0  0  0  0  0  0  0  0  0  0  0  0
   -2.8790   -0.6881    0.0000 C   0  0  0  0  0  0  0  0  0  0  0  0
    1.0118    0.3550    0.0000 C   0  0  0  0  0  0  0  0  0  0  0  0
    1.8186    0.5280    0.0000 C   0  0  0  0  0  0  0  0  0  0  0  0
    2.0722    1.3131    0.0000 N   0  0  0  0  0  0  0  0  0  0  0  0
    2.8790    1.4861    0.0000 C   0  0  0  0  0  0  0  0  0  0  0  0
    1.5191    1.9253    0.0000 C   0  0  0  0  0  0  0  0  0  0  0  0
  1 10  1  0  0  0  0
  4  1  1  0  0  0  0
 10 11  1  0  0  0  0
  6  7  1  0  0  0  0
  8 12  1  0  0  0  0
  1  2  2  0  0  0  0
 12 13  1  0  0  0  0
 13 14  1  0  0  0  0
  2  3  1  0  0  0  0
 14 15  1  0  0  0  0
  5  9  1  0  0  0  0
 14 16  1  0  0  0  0
  8  6  1  0  0  0  0
  7  5  1  0  0  0  0
  8  9  2  0  0  0  0
  3  7  2  0  0  0  0
  6  4  2  0  0  0  0
M  END
> <DATABASE_ID>
DB14010

> <DATABASE_NAME>
drugbank

> <SMILES>
COC1=CC=C2NC=C(CCN(C)C)C2=C1

> <INCHI_IDENTIFIER>
InChI=1S/C13H18N2O/c1-15(2)7-6-10-9-14-13-5-4-11(16-3)8-12(10)13/h4-5,8-9,14H,6-7H2,1-3H3

> <INCHI_KEY>
ZSTKHSQDNIGFLM-UHFFFAOYSA-N

> <FORMULA>
C13H18N2O

> <MOLECULAR_WEIGHT>
218.2948

> <EXACT_MASS>
218.141913208

> <JCHEM_ACCEPTOR_COUNT>
2

> <JCHEM_ATOM_COUNT>
34

> <JCHEM_AVERAGE_POLARIZABILITY>
25.4656074086973

> <JCHEM_BIOAVAILABILITY>
1

> <JCHEM_DONOR_COUNT>
1

> <JCHEM_FORMAL_CHARGE>
0

> <JCHEM_GHOSE_FILTER>
1

> <JCHEM_IUPAC>
[2-(5-methoxy-1H-indol-3-yl)ethyl]dimethylamine

> <ALOGPS_LOGP>
2.38

> <JCHEM_LOGP>
2.1443945153333344

> <ALOGPS_LOGS>
-2.48

> <JCHEM_MDDR_LIKE_RULE>
0

> <JCHEM_NUMBER_OF_RINGS>
2

> <JCHEM_PHYSIOLOGICAL_CHARGE>
1

> <JCHEM_PKA_STRONGEST_ACIDIC>
17.441282951700625

> <JCHEM_PKA_STRONGEST_BASIC>
9.584576430430719

> <JCHEM_POLAR_SURFACE_AREA>
28.259999999999998

> <JCHEM_REFRACTIVITY>
66.90540000000001

> <JCHEM_ROTATABLE_BOND_COUNT>
4

> <JCHEM_RULE_OF_FIVE>
1

> <ALOGPS_SOLUBILITY>
7.23e-01 g/l

> <JCHEM_TRADITIONAL_IUPAC>
5-MeO-DMT

> <JCHEM_VEBER_RULE>
1

> <DRUGBANK_ID>
DB14010

> <DRUG_GROUPS>
experimental; illicit

> <GENERIC_NAME>
5-methoxy-N,N-dimethyltryptamine

> <SYNONYMS>
3-(2-dimethylaminoethyl)-5-methoxyindole; 3-[2-(N,N-Dimethylamino)ethyl]-5-methoxy-indole; 5-MeO-DMT; 5-methoxy-N,N-dimethyl-1H-indole-3-ethanamine; MeODMT; Methoxybufotenin; N,N-dimethyl-5-methoxytryptamine; O-methylbufotenine

$$$$

  Mrv1718009011814382D          

 33 36  0  0  1  0            999 V2000
    4.1374   -1.1429    0.0000 C   0  0  0  0  0  0  0  0  0  0  0  0
    3.5243   -1.6949    0.0000 C   0  0  2  0  0  0  0  0  0  0  0  0
    3.2693   -0.9103    0.0000 C   0  0  0  0  0  0  0  0  0  0  0  0
    2.4624   -0.7388    0.0000 C   0  0  0  0  0  0  0  0  0  0  0  0
    1.9103   -1.3519    0.0000 C   0  0  1  0  0  0  0  0  0  0  0  0
    2.1653   -2.1365    0.0000 C   0  0  2  0  0  0  0  0  0  0  0  0
    2.9722   -2.3080    0.0000 C   0  0  2  0  0  0  0  0  0  0  0  0
    3.3847   -3.0225    0.0000 C   0  0  0  0  0  0  0  0  0  0  0  0
    4.1917   -2.8510    0.0000 C   0  0  0  0  0  0  0  0  0  0  0  0
    4.2780   -2.0305    0.0000 C   0  0  2  0  0  0  0  0  0  0  0  0
    4.9924   -1.6180    0.0000 O   0  0  0  0  0  0  0  0  0  0  0  0
    5.7069   -2.0305    0.0000 C   0  0  0  0  0  0  0  0  0  0  0  0
    5.7069   -2.8555    0.0000 O   0  0  0  0  0  0  0  0  0  0  0  0
    6.4214   -1.6180    0.0000 C   0  0  0  0  0  0  0  0  0  0  0  0
    7.1358   -2.0305    0.0000 C   0  0  0  0  0  0  0  0  0  0  0  0
    7.8503   -1.6180    0.0000 C   0  0  0  0  0  0  0  0  0  0  0  0
    8.5648   -2.0305    0.0000 C   0  0  0  0  0  0  0  0  0  0  0  0
    9.2792   -1.6180    0.0000 C   0  0  0  0  0  0  0  0  0  0  0  0
    9.9937   -2.0305    0.0000 C   0  0  0  0  0  0  0  0  0  0  0  0
   10.7082   -1.6180    0.0000 C   0  0  0  0  0  0  0  0  0  0  0  0
   11.4227   -2.0305    0.0000 C   0  0  0  0  0  0  0  0  0  0  0  0
   12.1371   -1.6180    0.0000 C   0  0  0  0  0  0  0  0  0  0  0  0
   12.8516   -2.0305    0.0000 C   0  0  0  0  0  0  0  0  0  0  0  0
    1.6132   -2.7496    0.0000 C   0  0  0  0  0  0  0  0  0  0  0  0
    0.8063   -2.5781    0.0000 C   0  0  0  0  0  0  0  0  0  0  0  0
    0.5513   -1.7935    0.0000 C   0  0  0  0  0  0  0  0  0  0  0  0
   -0.2556   -1.6219    0.0000 C   0  0  0  0  0  0  0  0  0  0  0  0
   -0.5106   -0.8373    0.0000 C   0  0  0  0  0  0  0  0  0  0  0  0
   -1.3176   -0.6658    0.0000 O   0  0  0  0  0  0  0  0  0  0  0  0
    0.0414   -0.2242    0.0000 C   0  0  0  0  0  0  0  0  0  0  0  0
    0.8484   -0.3957    0.0000 C   0  0  0  0  0  0  0  0  0  0  0  0
    1.1034   -1.1804    0.0000 C   0  0  2  0  0  0  0  0  0  0  0  0
    1.6554   -0.5673    0.0000 C   0  0  0  0  0  0  0  0  0  0  0  0
  2  1  1  1  0  0  0
  2  3  1  0  0  0  0
  3  4  1  0  0  0  0
  5  4  1  1  0  0  0
  5  6  1  0  0  0  0
  6  7  1  0  0  0  0
  2  7  1  0  0  0  0
  7  8  1  1  0  0  0
  8  9  1  0  0  0  0
  9 10  1  0  0  0  0
  2 10  1  0  0  0  0
 10 11  1  1  0  0  0
 11 12  1  0  0  0  0
 12 13  2  0  0  0  0
 12 14  1  0  0  0  0
 14 15  1  0  0  0  0
 15 16  1  0  0  0  0
 16 17  1  0  0  0  0
 17 18  1  0  0  0  0
 18 19  1  0  0  0  0
 19 20  1  0  0  0  0
 20 21  1  0  0  0  0
 21 22  1  0  0  0  0
 22 23  2  0  0  0  0
  6 24  1  6  0  0  0
 24 25  1  0  0  0  0
 25 26  1  0  0  0  0
 26 27  2  0  0  0  0
 27 28  1  0  0  0  0
 28 29  2  0  0  0  0
 28 30  1  0  0  0  0
 30 31  2  0  0  0  0
 31 32  1  0  0  0  0
  5 32  1  0  0  0  0
 26 32  1  0  0  0  0
 32 33  1  1  0  0  0
M  END
> <DATABASE_ID>
DB14639

> <DATABASE_NAME>
drugbank

> <SMILES>
C[C@]12CC[C@H]3[C@@H](CCC4=CC(=O)C=C[C@]34C)[C@@H]1CC[C@@H]2OC(=O)CCCCCCCCC=C

> <INCHI_IDENTIFIER>
InChI=1S/C30H44O3/c1-4-5-6-7-8-9-10-11-12-28(32)33-27-16-15-25-24-14-13-22-21-23(31)17-19-29(22,2)26(24)18-20-30(25,27)3/h4,17,19,21,24-27H,1,5-16,18,20H2,2-3H3/t24-,25-,26-,27-,29-,30-/m0/s1

> <INCHI_KEY>
AHMMSNQYOPMLSX-CNQKSJKFSA-N

> <FORMULA>
C30H44O3

> <MOLECULAR_WEIGHT>
452.679

> <EXACT_MASS>
452.329045277

> <JCHEM_ACCEPTOR_COUNT>
2

> <JCHEM_ATOM_COUNT>
77

> <JCHEM_AVERAGE_POLARIZABILITY>
56.18390771496334

> <JCHEM_BIOAVAILABILITY>
0

> <JCHEM_DONOR_COUNT>
0

> <JCHEM_FORMAL_CHARGE>
0

> <JCHEM_GHOSE_FILTER>
0

> <JCHEM_IUPAC>
(1S,3aS,3bR,9aR,9bS,11aS)-9a,11a-dimethyl-7-oxo-1H,2H,3H,3aH,3bH,4H,5H,7H,9aH,9bH,10H,11H,11aH-cyclopenta[a]phenanthren-1-yl undec-10-enoate

> <ALOGPS_LOGP>
6.27

> <JCHEM_LOGP>
7.757469378333335

> <ALOGPS_LOGS>
-6.91

> <JCHEM_MDDR_LIKE_RULE>
1

> <JCHEM_NUMBER_OF_RINGS>
4

> <JCHEM_PHYSIOLOGICAL_CHARGE>
0

> <JCHEM_PKA_STRONGEST_ACIDIC>
18.388155727462305

> <JCHEM_PKA_STRONGEST_BASIC>
-4.998216197053543

> <JCHEM_POLAR_SURFACE_AREA>
43.370000000000005

> <JCHEM_REFRACTIVITY>
136.15359999999998

> <JCHEM_ROTATABLE_BOND_COUNT>
11

> <JCHEM_RULE_OF_FIVE>
0

> <ALOGPS_SOLUBILITY>
5.54e-05 g/l

> <JCHEM_TRADITIONAL_IUPAC>
boldenone undecylenate

> <JCHEM_VEBER_RULE>
0

> <DRUGBANK_ID>
DB14639

> <SECONDARY_ACCESSION_NUMBERS>
DBSALT001616

> <DRUG_GROUPS>
illicit; vet_approved

> <GENERIC_NAME>
Boldenone undecylenate

> <SYNONYMS>
17beta-Hydroxyandrosta-1,4-dien-3-one 10-undecenoate; Boldenone 10-undecenoate

$$$$

  Mrv1718009011820022D          

 30 33  0  0  0  0            999 V2000
    2.2933   -0.8465    0.0000 C   0  0  0  0  0  0  0  0  0  0  0  0
    0.7942   -1.8292    0.0000 C   0  0  0  0  0  0  0  0  0  0  0  0
    2.2933    0.4882    0.0000 C   0  0  1  0  0  0  0  0  0  0  0  0
    0.7942    0.6457    0.0000 C   0  0  0  0  0  0  0  0  0  0  0  0
    2.7782   -0.1792    0.0000 C   0  0  0  0  0  0  0  0  0  0  0  0
   -0.6347   -1.0042    0.0000 C   0  0  2  0  0  0  0  0  0  0  0  0
    0.0797    0.2332    0.0000 C   0  0  0  0  0  0  0  0  0  0  0  0
    0.0797   -2.2417    0.0000 C   0  0  0  0  0  0  0  0  0  0  0  0
   -0.6347   -1.8292    0.0000 C   0  0  1  0  0  0  0  0  0  0  0  0
   -1.3493   -0.5917    0.0000 C   0  0  0  0  0  0  0  0  0  0  0  0
   -1.3493   -2.2417    0.0000 C   0  0  0  0  0  0  0  0  0  0  0  0
   -2.0637   -1.0042    0.0000 C   0  0  2  0  0  0  0  0  0  0  0  0
    0.7942   -1.0042    0.0000 C   0  0  2  0  0  0  0  0  0  0  0  0
    0.7942   -0.1792    0.0000 H   0  0  0  0  0  0  0  0  0  0  0  0
    0.0797   -0.5917    0.0000 C   0  0  1  0  0  0  0  0  0  0  0  0
    0.0797   -1.4167    0.0000 H   0  0  0  0  0  0  0  0  0  0  0  0
    1.5087    0.2332    0.0000 C   0  0  2  0  0  0  0  0  0  0  0  0
    1.5087    1.0582    0.0000 C   0  0  0  0  0  0  0  0  0  0  0  0
    1.5087   -0.5917    0.0000 C   0  0  1  0  0  0  0  0  0  0  0  0
    1.5087   -1.4167    0.0000 H   0  0  0  0  0  0  0  0  0  0  0  0
   -2.7782   -2.2417    0.0000 O   0  0  0  0  0  0  0  0  0  0  0  0
   -2.0637   -1.8292    0.0000 C   0  0  0  0  0  0  0  0  0  0  0  0
   -0.6347   -0.1792    0.0000 C   0  0  0  0  0  0  0  0  0  0  0  0
    2.4648    1.2952    0.0000 O   0  0  0  0  0  0  0  0  0  0  0  0
   -2.7782   -0.5917    0.0000 C   0  0  0  0  0  0  0  0  0  0  0  0
    1.8517    1.8472    0.0000 C   0  0  0  0  0  0  0  0  0  0  0  0
    1.0671    1.5923    0.0000 C   0  0  0  0  0  0  0  0  0  0  0  0
    0.4540    2.1443    0.0000 C   0  0  0  0  0  0  0  0  0  0  0  0
    2.0232    2.6542    0.0000 O   0  0  0  0  0  0  0  0  0  0  0  0
   -0.6347   -2.6542    0.0000 H   0  0  0  0  0  0  0  0  0  0  0  0
 19 13  1  0  0  0  0
 19 17  1  0  0  0  0
 19  1  1  0  0  0  0
 13 15  1  0  0  0  0
 13  2  1  0  0  0  0
 17  3  1  0  0  0  0
 17  4  1  0  0  0  0
  5  1  1  0  0  0  0
 15  6  1  0  0  0  0
 15  7  1  0  0  0  0
  2  8  1  0  0  0  0
  6  9  1  0  0  0  0
  6 10  1  0  0  0  0
  9 11  1  0  0  0  0
 10 12  1  0  0  0  0
 11 22  1  0  0  0  0
  3  5  1  0  0  0  0
  4  7  1  0  0  0  0
  8  9  1  0  0  0  0
 12 22  1  0  0  0  0
 13 14  1  1  0  0  0
 15 16  1  6  0  0  0
 17 18  1  1  0  0  0
 19 20  1  6  0  0  0
 22 21  2  0  0  0  0
  6 23  1  1  0  0  0
  3 24  1  1  0  0  0
 12 25  1  6  0  0  0
 24 26  1  0  0  0  0
 26 27  1  0  0  0  0
 27 28  1  0  0  0  0
 26 29  2  0  0  0  0
  9 30  1  6  0  0  0
M  END
> <DATABASE_ID>
DB14655

> <DATABASE_NAME>
drugbank

> <SMILES>
[H][C@@]12CC[C@H](OC(=O)CC)[C@@]1(C)CC[C@@]1([H])[C@@]2([H])CC[C@@]2([H])CC(=O)[C@H](C)C[C@]12C

> <INCHI_IDENTIFIER>
InChI=1S/C23H36O3/c1-5-21(25)26-20-9-8-17-16-7-6-15-12-19(24)14(2)13-23(15,4)18(16)10-11-22(17,20)3/h14-18,20H,5-13H2,1-4H3/t14-,15+,16+,17+,18+,20+,22+,23+/m1/s1

> <INCHI_KEY>
NOTIQUSPUUHHEH-UXOVVSIBSA-N

> <FORMULA>
C23H36O3

> <MOLECULAR_WEIGHT>
360.538

> <EXACT_MASS>
360.266445019

> <JCHEM_ACCEPTOR_COUNT>
2

> <JCHEM_ATOM_COUNT>
62

> <JCHEM_AVERAGE_POLARIZABILITY>
43.19417080232161

> <JCHEM_BIOAVAILABILITY>
1

> <JCHEM_DONOR_COUNT>
0

> <JCHEM_FORMAL_CHARGE>
0

> <JCHEM_GHOSE_FILTER>
1

> <JCHEM_IUPAC>
(1S,3aS,3bR,5aS,8R,9aS,9bS,11aS)-8,9a,11a-trimethyl-7-oxo-hexadecahydro-1H-cyclopenta[a]phenanthren-1-yl propanoate

> <ALOGPS_LOGP>
4.76

> <JCHEM_LOGP>
5.095905168333333

> <ALOGPS_LOGS>
-5.76

> <JCHEM_MDDR_LIKE_RULE>
0

> <JCHEM_NUMBER_OF_RINGS>
4

> <JCHEM_PHYSIOLOGICAL_CHARGE>
0

> <JCHEM_PKA_STRONGEST_BASIC>
-6.886029402774802

> <JCHEM_POLAR_SURFACE_AREA>
43.370000000000005

> <JCHEM_REFRACTIVITY>
101.95599999999997

> <JCHEM_ROTATABLE_BOND_COUNT>
3

> <JCHEM_RULE_OF_FIVE>
0

> <ALOGPS_SOLUBILITY>
6.31e-04 g/l

> <JCHEM_TRADITIONAL_IUPAC>
dromostanolone

> <JCHEM_VEBER_RULE>
0

> <DRUGBANK_ID>
DB14655

> <SECONDARY_ACCESSION_NUMBERS>
DBSALT001342

> <DRUG_GROUPS>
approved; illicit

> <GENERIC_NAME>
Drostanolone propionate

> <SYNONYMS>
17β-Hydroxy-2α-methyl-5α-androstan-3-one propionate; 2M-DHTP; 2MDTP; 2α-Methyl-4,5-dihydrotestosterone propionate; Blackburn Compound; Dromostanolone propionate; Emdisterone; Testosterone, 4,5α-dihydro-2α-methyl-, propionate

> <INTERNATIONAL_BRANDS>
Drolban; Masteril; Masteron

$$$$
