114
  Mrv0541 02231214272D          

 16 16  0  0  0  0            999 V2000
    6.3799    0.2063    0.0000 P   0  0  0  0  0  0  0  0  0  0  0  0
    5.6655   -0.2063    0.0000 O   0  0  0  0  0  0  0  0  0  0  0  0
    2.0930    0.2063    0.0000 O   0  0  0  0  0  0  0  0  0  0  0  0
    6.7925   -0.5082    0.0000 O   0  0  0  0  0  0  0  0  0  0  0  0
    7.0944    0.6188    0.0000 O   0  0  0  0  0  0  0  0  0  0  0  0
    2.8075    1.4438    0.0000 O   0  0  0  0  0  0  0  0  0  0  0  0
    5.9674    0.9207    0.0000 O   0  0  0  0  0  0  0  0  0  0  0  0
    3.5220   -1.4438    0.0000 N   0  0  0  0  0  0  0  0  0  0  0  0
    4.2365   -0.2063    0.0000 C   0  0  0  0  0  0  0  0  0  0  0  0
    3.5220    0.2063    0.0000 C   0  0  0  0  0  0  0  0  0  0  0  0
    4.9509    0.2063    0.0000 C   0  0  0  0  0  0  0  0  0  0  0  0
    2.8075   -0.2063    0.0000 C   0  0  0  0  0  0  0  0  0  0  0  0
    2.8075   -1.0313    0.0000 C   0  0  0  0  0  0  0  0  0  0  0  0
    4.2365   -1.0313    0.0000 C   0  0  0  0  0  0  0  0  0  0  0  0
    2.0930   -1.4438    0.0000 C   0  0  0  0  0  0  0  0  0  0  0  0
    3.5220    1.0313    0.0000 C   0  0  0  0  0  0  0  0  0  0  0  0
  1  2  1  0  0  0  0
  1  4  1  0  0  0  0
  1  5  1  0  0  0  0
  1  7  2  0  0  0  0
  2 11  1  0  0  0  0
  3 12  1  0  0  0  0
  6 16  2  0  0  0  0
  8 13  2  0  0  0  0
  8 14  1  0  0  0  0
  9 10  1  0  0  0  0
  9 11  1  0  0  0  0
  9 14  2  0  0  0  0
 10 12  2  0  0  0  0
 10 16  1  0  0  0  0
 12 13  1  0  0  0  0
 13 15  1  0  0  0  0
M  END
> <DATABASE_ID>
DB00114

> <DATABASE_NAME>
drugbank

> <SMILES>
CC1=NC=C(COP(O)(O)=O)C(C=O)=C1O

> <INCHI_IDENTIFIER>
InChI=1S/C8H10NO6P/c1-5-8(11)7(3-10)6(2-9-5)4-15-16(12,13)14/h2-3,11H,4H2,1H3,(H2,12,13,14)

> <INCHI_KEY>
NGVDGCNFYWLIFO-UHFFFAOYSA-N

> <FORMULA>
C8H10NO6P

> <MOLECULAR_WEIGHT>
247.1419

> <EXACT_MASS>
247.024573569

> <JCHEM_ACCEPTOR_COUNT>
6

> <JCHEM_AVERAGE_POLARIZABILITY>
20.89888718130824

> <JCHEM_BIOAVAILABILITY>
1

> <JCHEM_DONOR_COUNT>
3

> <JCHEM_FORMAL_CHARGE>
0

> <JCHEM_GHOSE_FILTER>
0

> <JCHEM_IUPAC>
[(4-formyl-5-hydroxy-6-methylpyridin-3-yl)methoxy]phosphonic acid

> <ALOGPS_LOGP>
-0.55

> <JCHEM_LOGP>
-2.0856087036128135

> <ALOGPS_LOGS>
-1.64

> <JCHEM_MDDR_LIKE_RULE>
0

> <JCHEM_NUMBER_OF_RINGS>
1

> <JCHEM_PHYSIOLOGICAL_CHARGE>
-2

> <JCHEM_PKA>
6.691277029499376

> <JCHEM_PKA_STRONGEST_ACIDIC>
1.6802986106557465

> <JCHEM_PKA_STRONGEST_BASIC>
4.109012435085948

> <JCHEM_POLAR_SURFACE_AREA>
116.95

> <JCHEM_REFRACTIVITY>
54.746300000000005

> <JCHEM_ROTATABLE_BOND_COUNT>
4

> <JCHEM_RULE_OF_FIVE>
1

> <ALOGPS_SOLUBILITY>
5.70e+00 g/l

> <JCHEM_TRADITIONAL_IUPAC>
pyridoxal phosphate

> <JCHEM_VEBER_RULE>
0

> <DRUGBANK_ID>
DB00114

> <SECONDARY_ACCESSION_NUMBERS>
NUTR00045

> <DRUG_GROUPS>
approved; investigational; nutraceutical

> <GENERIC_NAME>
Pyridoxal phosphate

> <SYNONYMS>
3-hydroxy-2-methyl-5-((phosphonooxy)methyl)-4-pyridinecarboxaldehyde; 3-hydroxy-5-(hydroxymethyl)-2-methylisonicotinaldehyde 5-phosphate; Codecarboxylase; PLP; Pyridoxal 5-monophosphoric acid ester; Pyridoxal 5-phosphate; Pyridoxal 5'-phosphate; Pyridoxal P; Pyridoxal phosphate anhydrous; Pyridoxal-5P; Pyridoxal-P

> <PRODUCTS>
Azesco; BumP DHA; Dexivite; Dyzbac; EnBrace HR; EnLyte; Hypnosom; L-Methyl PNV DHA; L-Methyl-B6-B12; Levomefolate Calcium Pyridoxal-5 Phosphate Mecobalamin Algal; Levomefolate Calcium, Pyridoxal 5-phosphate, Methylcobalamin and Schizochytrium DHA Oil; Lexazin; Mebolex; Mebolic; Medi-10; Methazel; Omniquin; Omnivex; PramLyte; Trinaz; Vita-Rx Diabetic Vitamin; Xyzbac; Xyzbac G; Zalvit; Zavitrol; Zyvit

> <INTERNATIONAL_BRANDS>
Biosechs; Himitan; Vitazechs

> <SALTS>
Pyridoxal phosphate hydrate

$$$$

  Mrv1909 11271922012D          

 93100  0  0  0  0            999 V2000
    2.3831   -1.7304    0.0000 C   0  0  0  0  0  0  0  0  0  0  0  0
    2.2652   -0.9138    0.0000 C   0  0  2  0  0  0  0  0  0  0  0  0
    1.4992   -0.6076    0.0000 C   0  0  0  0  0  0  0  0  0  0  0  0
    0.8509   -1.1180    0.0000 N   0  0  0  0  0  0  0  0  0  0  0  0
    0.0849   -0.8118    0.0000 C   0  0  0  0  0  0  0  0  0  0  0  0
   -0.0329    0.0047    0.0000 O   0  0  0  0  0  0  0  0  0  0  0  0
   -0.5632   -1.3221    0.0000 C   0  0  0  0  0  0  0  0  0  0  0  0
   -1.3293   -1.0159    0.0000 C   0  0  0  0  0  0  0  0  0  0  0  0
   -1.4472   -0.1994    0.0000 C   0  0  2  0  0  0  0  0  0  0  0  0
   -0.6228   -0.1675    0.0000 C   0  0  0  0  0  0  0  0  0  0  0  0
   -1.3927    0.6237    0.0000 C   0  0  1  0  0  0  0  0  0  0  0  0
   -0.6947    1.0636    0.0000 C   0  0  0  0  0  0  0  0  0  0  0  0
    0.0351    0.6789    0.0000 C   0  0  0  0  0  0  0  0  0  0  0  0
    0.7331    1.1187    0.0000 N   0  0  0  0  0  0  0  0  0  0  0  0
    0.3201   -0.0952    0.0000 O   0  0  0  0  0  0  0  0  0  0  0  0
   -2.1588    0.9300    0.0000 C   0  0  1  0  0  0  0  0  0  0  0  0
   -2.6867    0.2961    0.0000 N   0  0  0  0  0  0  0  0  0  0  0  0
   -2.2469   -0.4019    0.0000 C   0  0  0  0  0  0  0  0  0  0  0  0
   -2.7933   -1.3143    0.0000 C   0  0  0  0  0  0  0  0  0  0  0  0
   -2.2343   -1.9211    0.0000 C   0  0  0  0  0  0  0  0  0  0  0  0
   -3.5334   -1.6787    0.0000 C   0  0  0  0  0  0  0  0  0  0  0  0
   -4.1087   -1.0874    0.0000 N   0  0  0  0  0  0  0  0  0  0  0  0
   -4.8489   -1.4518    0.0000 C   0  0  0  0  0  0  0  0  0  0  0  0
   -5.6992   -0.8131    0.0000 C   0  0  0  0  0  0  0  0  0  0  0  0
   -5.9842   -0.0388    0.0000 C   0  0  0  0  0  0  0  0  0  0  0  0
   -5.3360    0.4713    0.0000 N   0  0  0  0  0  0  0  0  0  0  0  0
   -5.6211    1.2456    0.0000 C   0  0  0  0  0  0  0  0  0  0  0  0
   -4.8969    2.0244    0.0000 C   0  0  0  0  0  0  0  0  0  0  0  0
   -5.3175    2.7342    0.0000 C   0  0  0  0  0  0  0  0  0  0  0  0
   -4.0972    2.2270    0.0000 C   0  0  0  0  0  0  0  0  0  0  0  0
   -3.5693    2.8610    0.0000 C   0  0  1  0  0  0  0  0  0  0  0  0
   -3.7718    3.6607    0.0000 C   0  0  0  0  0  0  0  0  0  0  0  0
   -4.5657    3.8852    0.0000 C   0  0  0  0  0  0  0  0  0  0  0  0
   -4.7683    4.6850    0.0000 C   0  0  0  0  0  0  0  0  0  0  0  0
   -4.1769    5.2603    0.0000 N   0  0  0  0  0  0  0  0  0  0  0  0
   -5.5621    4.9094    0.0000 O   0  0  0  0  0  0  0  0  0  0  0  0
   -2.8032    2.5547    0.0000 C   0  0  2  0  0  0  0  0  0  0  0  0
   -1.9902    2.4145    0.0000 C   0  0  0  0  0  0  0  0  0  0  0  0
   -2.5787    3.3487    0.0000 C   0  0  0  0  0  0  0  0  0  0  0  0
   -1.7790    3.5513    0.0000 C   0  0  0  0  0  0  0  0  0  0  0  0
   -1.5545    4.3452    0.0000 N   0  0  0  0  0  0  0  0  0  0  0  0
   -1.2037    2.9600    0.0000 O   0  0  0  0  0  0  0  0  0  0  0  0
   -2.8577    1.7316    0.0000 C   0  0  2  0  0  0  0  0  0  0  0  0
   -2.0760    1.9954    0.0000 C   0  0  0  0  0  0  0  0  0  0  0  0
   -3.6574    1.5291    0.0000 N   0  0  0  0  0  0  0  0  0  0  0  0
   -3.9636    0.7630    0.0000 Co  0  3  0  0  0  0  0  0  0  0  0  0
   -3.4533    0.1147    0.0000 C   0  0  0  0  0  0  0  0  0  0  0  0
   -2.9429   -0.5334    0.0000 N   0  0  0  0  0  0  0  0  0  0  0  0
   -6.4455    1.2138    0.0000 C   0  0  1  0  0  0  0  0  0  0  0  0
   -6.3910    2.0370    0.0000 C   0  0  0  0  0  0  0  0  0  0  0  0
   -7.2585    1.3540    0.0000 C   0  0  0  0  0  0  0  0  0  0  0  0
   -7.5435    2.1282    0.0000 C   0  0  0  0  0  0  0  0  0  0  0  0
   -8.3565    2.2684    0.0000 N   0  0  0  0  0  0  0  0  0  0  0  0
   -7.0156    2.7621    0.0000 O   0  0  0  0  0  0  0  0  0  0  0  0
   -6.6699    0.4199    0.0000 C   0  0  2  0  0  0  0  0  0  0  0  0
   -7.4441    0.1347    0.0000 C   0  0  0  0  0  0  0  0  0  0  0  0
   -7.5843   -0.6781    0.0000 C   0  0  0  0  0  0  0  0  0  0  0  0
   -8.3585   -0.9632    0.0000 C   0  0  0  0  0  0  0  0  0  0  0  0
   -8.4988   -1.7762    0.0000 N   0  0  0  0  0  0  0  0  0  0  0  0
   -8.9925   -0.4353    0.0000 O   0  0  0  0  0  0  0  0  0  0  0  0
   -4.7310   -2.2684    0.0000 C   0  0  0  0  0  0  0  0  0  0  0  0
   -4.7855   -3.0916    0.0000 C   0  0  0  0  0  0  0  0  0  0  0  0
   -5.5554   -2.3001    0.0000 C   0  0  0  0  0  0  0  0  0  0  0  0
   -3.9180   -2.4086    0.0000 C   0  0  2  0  0  0  0  0  0  0  0  0
   -3.5536   -3.1488    0.0000 C   0  0  0  0  0  0  0  0  0  0  0  0
   -4.0124   -3.8344    0.0000 C   0  0  0  0  0  0  0  0  0  0  0  0
   -3.6480   -4.5746    0.0000 C   0  0  0  0  0  0  0  0  0  0  0  0
   -2.8248   -4.6291    0.0000 N   0  0  0  0  0  0  0  0  0  0  0  0
   -4.1068   -5.2603    0.0000 O   0  0  0  0  0  0  0  0  0  0  0  0
    2.9134   -0.4035    0.0000 O   0  0  0  0  0  0  0  0  0  0  0  0
    3.6795   -0.7097    0.0000 P   0  0  0  0  0  0  0  0  0  0  0  0
    3.9857    0.0563    0.0000 O   0  5  0  0  0  0  0  0  0  0  0  0
    3.3733   -1.4758    0.0000 O   0  0  0  0  0  0  0  0  0  0  0  0
    4.4456   -1.0159    0.0000 O   0  0  0  0  0  0  0  0  0  0  0  0
    5.0938   -0.5056    0.0000 C   0  0  2  0  0  0  0  0  0  0  0  0
    5.8877   -0.7300    0.0000 C   0  0  1  0  0  0  0  0  0  0  0  0
    6.1727   -1.5042    0.0000 C   0  0  0  0  0  0  0  0  0  0  0  0
    6.9857   -1.6444    0.0000 O   0  0  0  0  0  0  0  0  0  0  0  0
    6.3465   -0.0443    0.0000 O   0  0  0  0  0  0  0  0  0  0  0  0
    5.8361    0.6038    0.0000 C   0  0  1  0  0  0  0  0  0  0  0  0
    5.0619    0.3187    0.0000 C   0  0  2  0  0  0  0  0  0  0  0  0
    4.3763    0.7776    0.0000 O   0  0  0  0  0  0  0  0  0  0  0  0
    6.0606    1.3978    0.0000 N   0  0  0  0  0  0  0  0  0  0  0  0
    5.5502    2.0460    0.0000 C   0  0  0  0  0  0  0  0  0  0  0  0
    6.0090    2.7316    0.0000 N   0  0  0  0  0  0  0  0  0  0  0  0
    6.8029    2.5071    0.0000 C   0  0  0  0  0  0  0  0  0  0  0  0
    7.5009    2.9469    0.0000 C   0  0  0  0  0  0  0  0  0  0  0  0
    8.2308    2.5623    0.0000 C   0  0  0  0  0  0  0  0  0  0  0  0
    8.9288    3.0022    0.0000 C   0  0  0  0  0  0  0  0  0  0  0  0
    8.2627    1.7380    0.0000 C   0  0  0  0  0  0  0  0  0  0  0  0
    8.9925    1.3534    0.0000 C   0  0  0  0  0  0  0  0  0  0  0  0
    7.5646    1.2982    0.0000 C   0  0  0  0  0  0  0  0  0  0  0  0
    6.8348    1.6827    0.0000 C   0  0  0  0  0  0  0  0  0  0  0  0
  2  1  1  6  0  0  0
  2  3  1  0  0  0  0
  3  4  1  0  0  0  0
  4  5  1  0  0  0  0
  5  6  2  0  0  0  0
  5  7  1  0  0  0  0
  7  8  1  0  0  0  0
  9  8  1  1  0  0  0
  9 10  1  6  0  0  0
  9 11  1  0  0  0  0
 11 12  1  6  0  0  0
 12 13  1  0  0  0  0
 13 14  1  0  0  0  0
 13 15  2  0  0  0  0
 11 16  1  0  0  0  0
 16 17  1  1  0  0  0
 17 18  2  0  0  0  0
  9 18  1  0  0  0  0
 18 19  1  0  0  0  0
 19 20  1  0  0  0  0
 19 21  2  0  0  0  0
 21 22  1  0  0  0  0
 22 23  2  0  0  0  0
 23 24  1  0  0  0  0
 24 25  2  0  0  0  0
 25 26  1  0  0  0  0
 26 27  2  0  0  0  0
 27 28  1  0  0  0  0
 28 29  1  0  0  0  0
 28 30  2  0  0  0  0
 30 31  1  0  0  0  0
 31 32  1  1  0  0  0
 32 33  1  0  0  0  0
 33 34  1  0  0  0  0
 34 35  1  0  0  0  0
 34 36  2  0  0  0  0
 31 37  1  0  0  0  0
 37 38  1  1  0  0  0
 37 39  1  6  0  0  0
 39 40  1  0  0  0  0
 40 41  1  0  0  0  0
 40 42  2  0  0  0  0
 37 43  1  0  0  0  0
 16 43  1  0  0  0  0
 43 44  1  1  0  0  0
 43 45  1  0  0  0  0
 30 45  1  0  0  0  0
 45 46  1  0  0  0  0
 46 47  1  0  0  0  0
 47 48  3  0  0  0  0
 27 49  1  0  0  0  0
 49 50  1  1  0  0  0
 49 51  1  6  0  0  0
 51 52  1  0  0  0  0
 52 53  1  0  0  0  0
 52 54  2  0  0  0  0
 49 55  1  0  0  0  0
 25 55  1  0  0  0  0
 55 56  1  1  0  0  0
 56 57  1  0  0  0  0
 57 58  1  0  0  0  0
 58 59  1  0  0  0  0
 58 60  2  0  0  0  0
 23 61  1  0  0  0  0
 61 62  1  0  0  0  0
 61 63  1  0  0  0  0
 61 64  1  0  0  0  0
 21 64  1  0  0  0  0
 64 65  1  1  0  0  0
 65 66  1  0  0  0  0
 66 67  1  0  0  0  0
 67 68  1  0  0  0  0
 67 69  2  0  0  0  0
  2 70  1  0  0  0  0
 70 71  1  0  0  0  0
 71 72  1  0  0  0  0
 71 73  2  0  0  0  0
 71 74  1  0  0  0  0
 75 74  1  1  0  0  0
 75 76  1  0  0  0  0
 76 77  1  6  0  0  0
 77 78  1  0  0  0  0
 76 79  1  0  0  0  0
 79 80  1  0  0  0  0
 80 81  1  0  0  0  0
 75 81  1  0  0  0  0
 81 82  1  1  0  0  0
 80 83  1  1  0  0  0
 83 84  1  0  0  0  0
 84 85  2  0  0  0  0
 85 86  1  0  0  0  0
 86 87  1  0  0  0  0
 87 88  2  0  0  0  0
 88 89  1  0  0  0  0
 88 90  1  0  0  0  0
 90 91  1  0  0  0  0
 90 92  2  0  0  0  0
 92 93  1  0  0  0  0
 83 93  1  0  0  0  0
 86 93  2  0  0  0  0
M  CHG  2  46   1  72  -1
M  END
> <DATABASE_ID>
DB00115

> <DATABASE_NAME>
drugbank

> <SMILES>
C[C@H](CNC(=O)CC[C@]1(C)[C@@H](CC(N)=O)[C@H]2N=C1\C(C)=C1/N=C(/C=C3\N=C(\C(\C)=C4\[C@@H](CCC(N)=O)[C@](C)(CC(N)=O)[C@@]2(C)N4[Co+]C#N)[C@@](C)(CC(N)=O)[C@@H]3CCC(N)=O)C(C)(C)[C@@H]1CCC(N)=O)OP([O-])(=O)O[C@@H]1[C@@H](CO)O[C@@H]([C@@H]1O)N1C=NC2=C1C=C(C)C(C)=C2

> <INCHI_IDENTIFIER>
InChI=1S/C62H90N13O14P.CN.Co/c1-29-20-39-40(21-30(29)2)75(28-70-39)57-52(84)53(41(27-76)87-57)89-90(85,86)88-31(3)26-69-49(83)18-19-59(8)37(22-46(66)80)56-62(11)61(10,25-48(68)82)36(14-17-45(65)79)51(74-62)33(5)55-60(9,24-47(67)81)34(12-15-43(63)77)38(71-55)23-42-58(6,7)35(13-16-44(64)78)50(72-42)32(4)54(59)73-56;1-2;/h20-21,23,28,31,34-37,41,52-53,56-57,76,84H,12-19,22,24-27H2,1-11H3,(H15,63,64,65,66,67,68,69,71,72,73,74,77,78,79,80,81,82,83,85,86);;/q;;+2/p-2/t31-,34-,35-,36-,37+,41-,52-,53-,56-,57+,59-,60+,61+,62+;;/m1../s1

> <INCHI_KEY>
RMRCNWBMXRMIRW-WZHZPDAFSA-L

> <FORMULA>
C63H88CoN14O14P

> <MOLECULAR_WEIGHT>
1355.3652

> <EXACT_MASS>
1354.5674053

> <JCHEM_ACCEPTOR_COUNT>
18

> <JCHEM_ATOM_COUNT>
181

> <JCHEM_AVERAGE_POLARIZABILITY>
138.78970476424402

> <JCHEM_BIOAVAILABILITY>
0

> <JCHEM_DONOR_COUNT>
9

> <JCHEM_FORMAL_CHARGE>
0

> <JCHEM_GHOSE_FILTER>
0

> <JCHEM_IUPAC>
cyano[(1R,2R,3R,4R,6Z,8S,11Z,13S,14S,16Z,18S,19S)-8,13,18-tris(2-carbamoylethyl)-3,14,19-tris(carbamoylmethyl)-4-(2-{[(2R)-2-{[(2R,3S,4R,5S)-5-(5,6-dimethyl-1H-1,3-benzodiazol-1-yl)-4-hydroxy-2-(hydroxymethyl)oxolan-3-yl phosphonato]oxy}propyl]carbamoyl}ethyl)-1,4,6,9,9,14,16,19-octamethyl-20,21,22,23-tetraazapentacyclo[15.2.1.1^{2,5}.1^{7,10}.1^{12,15}]tricosa-5(23),6,10(22),11,15(21),16-hexaen-20-yl]cobaltylium

> <ALOGPS_LOGP>
2.66

> <JCHEM_LOGP>
-3.237631304949767

> <ALOGPS_LOGS>
-4.84

> <JCHEM_MDDR_LIKE_RULE>
1

> <JCHEM_NUMBER_OF_RINGS>
8

> <JCHEM_PHYSIOLOGICAL_CHARGE>
3

> <JCHEM_PKA>
12.585167125902856

> <JCHEM_PKA_STRONGEST_ACIDIC>
1.8166316704374712

> <JCHEM_PKA_STRONGEST_BASIC>
8.68313736073737

> <JCHEM_POLAR_SURFACE_AREA>
477.85

> <JCHEM_REFRACTIVITY>
337.4833

> <JCHEM_ROTATABLE_BOND_COUNT>
27

> <JCHEM_RULE_OF_FIVE>
0

> <ALOGPS_SOLUBILITY>
2.02e-02 g/l

> <JCHEM_TRADITIONAL_IUPAC>
racemiccalcium pantothenate

> <JCHEM_VEBER_RULE>
0

> <DRUGBANK_ID>
DB00115

> <SECONDARY_ACCESSION_NUMBERS>
NUTR00004; APRD00326; EXPT00965

> <DRUG_GROUPS>
approved; nutraceutical

> <GENERIC_NAME>
Cyanocobalamin

> <SYNONYMS>
Cianocobalamina; Cyanocob(III)alamin; Cyanocobalamin; Cyanocobalamine; Cyanocobalaminum; Vitamin B12; Vitamin B12 complex; Vitamin B12 NOS

> <PRODUCTS>
24 Multivitamins + Minerals; 50 Plus; 50 Plus Multiple Vitamins & Minerals; Active FE; Active OB; Adult Formula 50+; Adult Infuvite Multiple Vitamins; Advanced B & T Formula; Aj-cyanocobalamin; Alkadrenergy Tablets; Allbee C 800 Tab; Alsimine W Vitamins A D; Am Caps; American Eagle Energizer Plus Vitamin Supplement Drink; American Plus Energy & Vitamin Drink; Amerix Multivitamin; Animal Shapes; Animal Shapes w/Iron Chewtabs; Animi-3; Animi-3 with Vitamin D; Av-VITE FB; Av-VITE FB Forte; Avon Nutrivance Vitamin E Plus; Avon Vitadvance Multi-kids Complete; B - 12; B 50 Capsules; B C Antistress Cap; B Complex 25mg Vitamin Supplement; B Complex 50 Vitamin Cap; B Complex 50+ Caplet; B Complex Plus C 300mg Tab; B Complex Tablets; B Complex W C Forte Cap; B Complex W C and B12 Inj; B Complex W Vit C W Non-med Yeast&liver Tab; B Complex W Vitamin C Fortis Cap; B Complex With C 300mg; B Complex With C 550mg; B Compound 50mg Tab; B Plus C 300 mg; B Stress C + Iron & Vite; B Virol; B Vitamin Compound With B12 Thunas; B With C 500 Cap; B-100 Caps; B-100 Complex Tablets; B-100 Hi Potency B Vitamins Tab; B-12 1000 Inj 1000mcg/ml; B-12 1000mcg Continuous Released Tab; B-12 Compliance; B-12 Kit; B-50 Complex; B-50 Complex Tab; B-50 Hi Potency B Vitamins Tab; B-Serene Rx; B-complex; B-complex 100; B-complex 50; B-complex Tab; B-complex Tablets; B-complex With Vitamin C, Biotin, Folic Acid; B-complex-50 Tab; B-plex; B-plus - Tab; B.E.T. Complex; B12 1000mcg; B12 250mcg Cyanocobalamin; B12 Inject Kit; B50 B Complex Tab; B50 Complex; B6, B12 & Folic Acid; B6, B12 & Folic Acid Multi-vitamin Tablets; BP Vit 3; Bacmin; Bal-Care DHA; Bal-Care DHA Essential; Balanced B 125 Srt; Balanced B-100 B-complex Vitamins Tab; Balanced B-50 B-complex Vitamins Tab; Balanced B-50 B-complex Vitamins, Timed Rele; Balanced B-50 Complex; Balanced B-complex Vit + Vit C&e Tab; Balanced B100; Balanced B50 Complex; Bear Essentials; Bedoz 1000inj; Beminal Fortis Elx; Beminal With C Fortis Cap; Bev 29 Tab; Bev B-150; BiferaRx; Bio-b12; BioFerr 90; Biovim Tab; Body Rox; Bugs Bunny Chew Multi Vit Plus Iron; Bugs Bunny and Friends Multiple Vitamins; C-B Complex; C-Nate DHA; C-force; C. Vit-min Formula; C.E.b12 Complex Pwr; C.R.D.-force; Calcium Folic Acid Plus D Chewable; CaloMist; Carbassist Tablets; Cardiotek-RX; Cataplex B12 Tab 6mcg; Cavan Alpha; Cavan Folate DHA; Cavan Folate OB; Cavan Heme OB; Cavan Prenatal; Cavan X; Cavan-EC SOD DHA; Cda-21 Vitamins With Non-medicinal Probiotic Complex; Cedevita Plus Vitamin Supplement; Cedevita Sugar-free Vitamin Supplement; Central-vite 18 Essential; Centratex; Century Complete; Chela Iron Plus C,b Complex; Chela-chromium 200; Chew.multiple Vits.with Extra C for Children; Chewable Adult Multivitamins With Minerals; Chewable Children's Complete Multivitamins With Essential Minerals; Chewable Multiple Vit Plus Iron for Children; Chewable Multiple Vitamins Plus Extra C; Chewable Multiple Vitamins Plus Iron Tab; Chewable Multiple Vitamins Tab; Chewable Multiple Vitamins for Children; Chewable Multivitamins; Chewable Multivitamins Plus Iron; Children Choice Multivit Chewable Tab; Children Choice Multivitamin W Iron Chew Tab; Children's Chew Multi & Min Tab; Children's Chewable Multi Vit W Iron; Children's Chewable Multi Vitamins; Children's Chewable Multi Vitamins With Iron Tablets; Children's Chewable Multi-vitamin; Children's Chewable Multi-vitamin Complete With Minerals; Children's Chewable Multiple Vit.plus Iron; Children's Chewable Multiple Vitamins (chewable Tablets); Children's Chewable Multiple Vitamins - Tab; Children's Chewable Multiple Vitamins With Extra Vitamin C (chewable Tablets); Children's Chewable Multiple Vitamins With Iron Tablets (chewable Tablets); Children's Chewable Multivitamin Complete With Minerals; Children's Chewable Multivitamin and Multimineral; Children's Chewable Multivitamins With Minerals; Children's Chewable Multivitamins and Minerals; Children's Chewable Tab; Children's Chewable Vit and Min Tab; Children's Chewable With Iron; Children's Multivitamins; Children's Multivitamins With Iron; Children's Vitamins Chewable; Children's Vitamins W Iron Chewable; Childrens Chew Multi Vitamin Tab; Childrens Chewab Vitamin W Chel Minerals; Childrens Chewable Multiple Vitamins; Childrens Chewable Multiple Vitamins Plus Fe; Childrens Chewable Multiple Vitamins Tab; Childrens Chewable Multiple Vitamins W.iron; Childrens Chewable Multivitamins; Childrens Chewable Multivitamins W Iron; Childrens Chewable Tab; Childrens Chewable Vitamin Tab; Childrens Chewable Vitamins; Childrens Chewable Vitamins W Iron; Childrens Multiple Vit and Min Chew Tab; Choice OB DHA; Chromagen; CitraNatal Bloom; CitraNatal Bloom DHA; Classic Swiss One 10 Multivitamin and Mineral Tab; Cobex Inj 1000mcg/ml; Coco12; Complete Mega B; Complete Multivitamins and Minerals for Children; Complete Natal DHA; Complete-RF Prenatal; CompleteNate Chewable; Complex-75; Complexe B 75mg; Complexe B Compose 75; Complexe B-75; Concept DHA; Concept OB; Cool B; Corvita; Corvita 150; Corvite; Corvite 150; Corvite FE; Corvite Free; Crystalline Vitamin B12-liq Im Sc 1000mcg/ml; Cyancobalamin; Cyanocobalamin; Cyanocobalamin Injection USP; Cyanocobalamin Injection USP 1000mcg/ml; Cyanocobalamin Injection, USP; Cyanocobalamine; DaVITE; Daily Balance Tab; Daily Energy Brand B-complex; Daily Supplement Packs; Daily-Vite; Dalivit; Deriton; Derma-force; Dexifol; Dia-vite; Diaplex; Divista; Doctor's Choice Brand for Men; Dothelle DHA; Duet DHA; Duet DHA 400; Duet DHA 400 ec; Duet DHA Balanced; DuetDHA Balanced; DuetDHA Complete; Dynam Ampoule Et Tablet; E.S.T. Complex; Earthpals Children's Chewables Multi-vitamin & Mineral Tablets; Edge OB; Efferlife Multivitamins and Minerals; Elite OB Prenatal Multivitamin; Ellis Tonic; Energy 80 Prolonged Release Tab; Enrich Core Pack - Children Vitamin and Mineral Supplement; Envirocomplex; Enviroflex - Tab; Escavite; Escavite Lq; Essential B Tablets; Essential Vitamins and Minerals; Everyday Multiple Vitamins; Everyday Multiple Vitamins With Iron; Extra Once A Day; Extra P.N. Vitamin-mineral Drink Mix; Ez-flex; FE C Tab Plus; FaBB; FeRiva; FeRiva 21 7; FeRiva FA; FeRivaFA; Fem - Control; Fem Time Tab; Feminex 300 Tab; Feminique W Iron and Calcium Tab; Femitab Tab; Ferotrin; FerraPlus 90; Ferralet 90; Ferrex 150 Forte; Ferrex 150 Forte Plus; Ferrex 28; FerroGels Forte; Fib-C Melts; Fibrik; Fizz Multivitamins for Kids W C Loz; Flexadyn Tab; Flinstones Multiple Plus Iron; Flintstones Multiple Vitamins; Flintstones Multiple Vitamins Plus Iron; Flintstones Multiple Vitamins Tab; Flintstones W Extra C Tab; Floravit - Syr; Floriva; Floriva Plus; Focalgin DSS; Folastin; Folbic; Folcaps; Folet DHA; Folet One; Folgard; Folic Acid Plus; Folic Acid With Vitamin B12 and Vitamin C; Folic Acid-b12 Tab; Folic-K; Folica BE; Folica-V; Folivane-OB; Folivane-Plus with Ascorbic Acid Precursors; Foltabs 800; Foltrate; Foltx; Folvite-FE; For Kids Only Chewable Multivit. Plus Iron; For Kids Only Chewable Multivitamins; For Kids Only Chewable Multivitamins - Tab; For Men; For-2; Formula Ch. Les.; Formula Cn; Formula Cp Cap; Formula D.S.; Formula F L W; Formula Gly; Formula Hh; Formula Int; Formula Lf; Formula O.C.; Formula Pro-B; Formula Statin Support; Forphyll 3mcg; Fortamines 10 Capsules; Fortamines-10 Comprimes; Fortaplex Inj; Fortiplex; Forty Plus Vitamin Supplement; Fusion Activator Formula Tab; G.A.S. Complex; Gestamine Comprimes; Gesticare DHA; Glyco Lite Ect; Glyco Plus Ect; Glyco-aide Tab; Golf Vitamin and Mineral Supplement; Grand Master Formula Tab; Great Day/am Formula Tab; Gsf Tab 24mcg; H. Formula - Tab; Harvest Of Values All B Complex Tab; Hemarexin Tab; Hematogen; Hematogen FA; Hematogen Forte; HemeNatal OB; HemeNatal OB plus DHA; Hemetab; Hemocyte Plus; Heparos Ampoules Buvables; Hi Potency B Complex W Chelated Minerals; Hi Potency B52 B Complex Tab; Hi Potency Balanced B-100 Complex - Tab; Hi Potency Multi Tab; Hi Potency Stress B Tension With C; High Potency Multivitamins & Minerals Caplets; High Potency Vitamin B Complex + C Tab; Hill.vite; Homosismin; Homosistrol Capsules; Homosistrox Capsules; Hormodausse Plus Calc Et D Tab; Hsn Formula; Hypo Vites Tab; Hyporyl - Tab; INATAL Ultra; Iberet 500; Iferex 150 Forte; Inatal Advance; Infuvite Adult Multiple Vitamins; Innersource Tab; Insur-all Vitamin Supplement; Iron; Iron 25mg With Vit B-cmplx, Vit C, Cu & Mo; Iron Aspartate Glycinate and Polysaccharide Complex, Ascorbic Calcium, Vitamin B12, Folic Acid, Calcium Threonate and Succinic Acid; Iron Aspartate, Glycinate, Ascorbic Calcium, Vitamin B12, Calcium Threonate and Succinic Acid; Iron Fumarate and Aspartate, Glycinate, Ascorbic Calcium, Vitamin B12, Folic Acid, Calcium Threonate and Succinic Acid; Iron Plus Manganese, B12, Folic Acid & C; Iron Plus Tab; Iron Polysaccharides Folic Acid DHA; Iron Vitamins B6,b12,c,folic Acid Tab; Iron With Vitamins Tab; Iron, Vit & Min Supp; Irospan 24/6; Isotonix Advanced B-complex Vitamins With Potassium and Magnesium; Isotonix Multitech Vitamin Mineral Supplemen; Isotonix Vitamin B-folic Acid-mineral Supple; Jamp-cyanocobalamin; K.L. Vitamin-mineral; Kanga Sport Vitamins B & C Plus Minerals; Kanga-B Vitamin B Group + C; Kanga-V Multivitamins & Minerals; Kanga-kid Multi-vitamin & Mineral; Kanga-kid Vitamins & Iron; Kc Vitamin and Mineral Supplement; Kid's Choice Children's Chewable Vitamins - Tab; Kids Stuff Tablets; Kids Stuff With Iron Tablets; Kindervites; L Fac Tab; L-Methyl MC; L-Methyl-MC; L.C. Supplement; L.I.P. Complex; Leritone Antistress; Leritone Junior; Levomefolate Calcium, Cyanocobalamin and Pyridoxine Hydrochloride; Lipo-B-C Tab; Lipovitan; Liqui B Complex; Liqui B Complex Plus; Liqui Infant Vitamins; Liqui Vita; Liquid B Complex 50; Livron Plus Ampoule; Livron Plus Tab; Low Potency B Complex Tab; Luna Vitamin and Mineral Bar for Women; Lustime Angel; Lustime Unicorn; Lutime; Lysamine Diet Supp Amp-tab; M-Natal Plus; M.V.I. 12; M.V.I. Adult; M.V.I. Paediatric; M.V.I. Pediatric; M.V.I.-12; MVC-Fluoride; MYNEPHROCAPS DIALYSIS/STRESS Vitamin Supplement; Magnum-75 Vitamin and Mineral Supplement; Maintain Multiple Vitamin & Minerals; Maltlevol 12 Liq; Mangadyn; Marnatal F; Master Key Multi Vitamin Multi Mineral Formula 2; Materna; Materna - Tab; Materna-tab; MaxFe; Maxi 10 Tab; Maximum Once A Day; Maxine Vitamin and Mineral Supplement; Mega 13 Multivitamin Formula; Mega Balance; Mega Capsules; Mega Plex III - Pck; Mega Plex IV - Pck; Mega Vitaminerals; Mega-vim 75 With Beta-carotene - Tablets; Megavite Rx; Men's; Men's 50+; Men's Multi Master Formula; Menocal Tab; Meplex T 750; Mi-Omega NF; Milltrium Senior Vitamin and Mineral Supplement; Mini-B Tab; Moms Choice Rx; Mor-vites Tab; Mr. Tumee Multi-vitamin; Multi #2; Multi - N.T.O.x Formula - Tab; Multi 12 Injection; Multi B; Multi Enfants Tab; Multi II IV Vi Tab; Multi Nt-OX; Multi Plex I - Tab; Multi Plex II - Tab; Multi Pro; Multi Rol; Multi Tabs; Multi Vitamin & Minerals; Multi Vitamin - Mineral; Multi Vitamin Drops with Fluoride; Multi Vitamin Plus Iron; Multi Vitamin and Fluoride; Multi Vitamin with Fluoride; Multi Vitamin-mineral Formula; Multi Vitamines - Liq; Multi Vitamins & Minerals; Multi Vite Liq Adult; Multi Vite Liq Junior; Multi-11; Multi-12 Pediatric; Multi-12/k1 Pediatric; Multi-Nate 30; Multi-Vit with Fluoride; Multi-Vitamin; Multi-Vitamin Fluoride; Multi-Vitamin Fluoride Drops; Multi-Vitamin With Fluoride; Multi-Vitamin with Fluoride; Multi-actin; Multi-force for Women Tab; Multi-kid; Multi-phyto Capsules; Multi-vitamin Dietary Supplement; Multi-vitamines Enfants Comprime; Multi-vitamins; Multi-vitamins With Minerals; MultiVitamin with Fluoride; MultiVitamin with Fluoride Chewable; MultiVitamin with Fluoride Drops; Multicaps; Multinate DHA; Multinate DHA Extra; Multipack II; Multiple Vit Plus Iron Tab; Multiple Vitamin Plus Minerals Tab; Multiple Vitamin Tab; Multiple Vitamins; Multiple Vitamins & Minerals Tablets; Multiple Vitamins - Tablet; Multiple Vitamins Childrens Chewable; Multiple Vitamins Plus Iron - Tab; Multiple Vitamins Plus Iron Tab; Multiple Vitamins Plus Iron for Women; Multiple Vitamins Tab; Multiple Vitamins W Iron Tab; Multiple Vitamins W Minerals Tab; Multiple Vitamins With Iron; Multiple Vitamins With Iron Tablets; Multiple Vitamins With Minerals Tablets; Multiple Vitamins and Minerals; Multiple Vitamins and Minerals Capsules; Multiple Vitamins and Minerals Tab; Multisol; Multitabs; Multivit Et Fer Ampoules Et Comprimes; Multivit with Fluoride; Multivit-liq; Multivitamin; Multivitamin & Minerals (iron Free); Multivitamin & Multimineral; Multivitamin Drops with Fluoride; Multivitamin with Fluoride; Multivitamin with fluoride; Multivitamine; Multivitamines Et Mineraux; Multivitamines Et Mineraux Junior Regulier; Multivitamines Et Mineraux Reguliers / Regular Multivitamins and Minerals; Multivitamines Plus Fer Pour Enfants (chewable Tablets); Multivitamines Pour Enfants (chewable Tablets); Multivitamins; Multivitamins W Iron; Multivitamins W Minerals Extra Strength; Multivitamins and Minerals - Complete; Multivitamins and Minerals Tablets; Multivitamins and Minerals With Betacarotene Tablets; Multivitamins and Minerals for Men; Multivitamins and Minerals for Women; Multivitamins and Minerals for Young Men; Multivitamins and Minerals for Young Women; Multivitamins and Multiminerals Formula Regular Tablet; Multivitamins for Children; Multra Plex; Multra With Iron; Mvc; Mvc 9 Plus 3 Inj; Mvc 9+4 Inj; Myferon 150 Forte; Myhephron Dialysis and Stress Supplement; N.E.U. Complex; N.U.T. Complex; NEONATAL Complete; NESTABS ABC Prenatal Multi-vitamin/Mineral Supplement with DHA/EPA; NESTABS DHA Prenatal Multi-vitamin/Mineral Supplement with DHA/EPA; NESTABS Prenatal Multi-vitamin/Mineral Supplement; Nascobal; Nata Komplete; NataChew; NataFort; Natal-V RX Multi-vitamin/Multi-mineral; Natalvirt FLT; Natavite; Natural Source Spectrum With Beta Carotene; Neo Bex Elixir; Neomultivite; Neonatal DHA; Neonatal Fe; Neonatal Plus Vitamin; Neonatal Vitamin; Neonatal19; Nephrocaps; Nephrocaps-QT; Nestabs ONE; NeuroBion; Neutral C + Coenzyme Q10 Plus Vitamins & Minerals; New Chapter's D'adamo 4 Your Type Multiple for Type O; Niferex; Niron Komplete; Niva-Fol; Niva-Plus; NovaMV Multivitamin; Nrg Plus Liq; NuFera; Numark Multivitamins; Nutra Boost; Nutra-clear; Nutri-Tab OB; Nutri-Tab OB plus DHA; Nutrifer Plus Tablets; Nutrilite Double X; Nutrol-B-complex; O-Cal FA multivitamin; O-Cal Prenatal Vitamin; OB Complete 400; OB Complete DHA; OB Complete Gold; OB Complete Petite; OB Complete Prenatal; Oligofer Liq; Olympian Multi Vit Plus Minerals Tab; Omega-3 Rx Complete; Onccor; Oncovite; One A Day Advance Adults; One A Day Advance Adults 50+; One A Day Advance Fem; One A Day Multiple Vit W Minerals; One A Day Tab; One Daily Vitamin and Mineral Dietary Supplement; One Per Day Vitamin and Mineral Dietary Supplement; One Tablet Daily Mens Formula; One-A-day Advance Fem - Tablets; One-A-day Advance Men's; Only One - Tablet; Orange Flavored Crystal Chews Tab; Orti B; Osteo-force; P.N. Vitamin-mineral Drink; P.N.P. Vitamin Drink; P.R.O. Complex; PM Caps; PNV Ferrous Fumarate Docusate Folic Acid; PNV Prenatal Plus Multivitamin; PNV Prenatal Vitamin; PNV Prenatal Vitamin Plus Vitamin A; PNV Tabs 29-1; PNV-First; PNV-Omega; PNV-Select; PR Natal 400; PR Natal 400 ec; PR Natal 430; PR Natal 430 ec; PRENATE Enhance; PRENATE Restore; Paire OB Plus DHA; Palm Springs Multvit and Min Tab; Paramettes Adults; Paramettes Multivits Plus Iron Tab (teens); Paramettes Syrup; Pediatric Infuvite Multiple Vitamins; Pediatric Infuvite Multiple Vitamins for Infusion; Phosthenine Vitamines Et Fer (ampoules Buvable); Physicians EZ Use B-12 Compliance; Phytofortis + Calcium A-D; Phytoplex B Liq; Phytopure; Phytovim Cap; Ply Vi Sol Chewable Tab; Pnv-OB-dha; Pnv-VP-U; Pnv-dha; Poly Vi Flor Chewable Tab; Poly-Vi-Flor; Poly-Vi-Sol; Poly-Vitamin with Fluoride; Polymine Avec Zinc Et Cuivre; Pour Ma Santé; Pre-Tabs DHA Prenatal Multi-vitamin/Mineral Supplement with DHA/EPA; PreGen DHA; PreGenna; PreNatal 19; PreNatal Vitamins Plus; PrePLUS; PreQue 10; PreTAB; Prefera OB plus DHA; PreferaOB; PreferaOB ONE; PreferaOB One; PreferaOB plus DHA; Pregvit; Pregvit Folic 4; Pregvit Folic 5; Premium Prenatal; Premium Prenatal - Tablets; Prena1; Prena1 Plus; Prenara; Prenatabs FA; Prenatal; Prenatal Formula Tab; Prenatal Mega Antioxidant; Prenatal Plus; Prenatal Plus Iron; Prenatal Plus Multivitamin Plus DHA MiniCaps; Prenatal Supplement - Tab; Prenatal Vi-min; Prenatal Vitamin and Mineral Supplement; Prenatal Vitamin and Mineral Supplement -tab; Prenatal Vitamin and Mineral Supplement Tab; Prenatal Vitamins Plus; Prenatal Vitamins Plus Low Iron; Prenatal Vitamins and Minerals Tablets; Prenatal and Post Partum Supplement; Prenatal, DHA; Prenate AM; Prenate Chewable; Prenate DHA; Prenate Elite; Prenate Essential; Prenate Mini; Prenate Pixie; Prenate Star; Prenatrix; Prenatryl; Prenatvite; Prenatvite Complete; Prenatvite Plus; Preplus; Prevital Tab; Prim - Royal P.M.T.; Pro Enz Tab; Pro Hers Vanilla; Pro His Mint; Pro Pcos Citrus; PureFe OB Plus; PureFe Plus; PureVit DualFe Plus; Puro Sang Tab 1mcg; Q.T. #4 Vitamin and Mineral Dietary Supplement; Q.T. Vitamin and Mineral Drink Mix; Quflora FE; Quflora FE Pediatric Drops; Quflora Gummies; Quflora Pediatric; Quflora Pediatric Drops; RE FAC-x; RE Nata; RE Nata OB; RE Prenatal Multivitamin with Iron; Re Kar C Plus; Reaphirm Plant Source DHA; Recal D; Red American Eagle Vitamin Supplement Drink; Reebok; Relnate DHA; Remedient; Renal Caps Dialysis/Stress Vitamin Supplement; Renate; Renate DHA; Reno Caps; Replavite; Revit Multi-vitamins and Minerals; Revit Plus Cap; Revitalize Multi-vitamin and Mineral Complex; Revitex Ampoules Et Comprimes; Revival 1 Tab; Right Choice A.M. Multi Formula - Caplet; Rogenic; Rubion 1000; Rubramin 1000mcg/ml; Rubramin PC; Rulavite DHA; Scheinpharm B12 Injection; Se-Care Conceive; Se-Natal; Se-Natal 19; Se-Natal 19 Chewable; Se-Natal One; Se-Plete DHA; Se-Tan PLUS; Se-Vate 21/7; Senior Multi One; SetonET; SetonET-EC; Sibergin B - Cap; Somarexin and C 1000; Sopalamine 3b Plus; Sopalamine/3b Plus C; Sopalamine/3b Tab; Spd Tab; Spectrum 2 Cap; Spectrum Performa Multivitamins and Minerals Tablets; Stress B Capsules With Vitamin C; Stress B Complex With C and E Tab; Stress B Complex With C, E & Iron; Stress B Complex With C, E and Iron Tab; Stress B Complex With C,e, Zinc and Copper; Stress B With 1000 Mg Vitamin C; Stress B&c Tab; Stress B-complex Plus Iron With Vitamins C&e; Stress Complex 600 Avec Vit E Cuivre Zinc; Stress Ctr Srt; Stress Formula; Stress Formula + Iron; Stress Formula B-comp + 500mg Vit C Tab; Stress Formula Multi-B Comp + 500mg Vit C Cap; Stress Formula Multivitamin Tablets USP; Stress Formula Tab; Stress Formula Vit B With C Complex; Stress Forte Plus Lipotropic Factors; Stress Tab; Stress Tab With Iron and Vitamin E; Stress Tab With Zinc, Copper and Vitamin E; Stress Vitamin B With C Complex Tablets; Stressmates; Stresstabs + Zinc-copper; Strovite Forte Caplet; Strovite One Caplets; Sun-rype Vitaburst; Super B Compound W 500mg Vit C; Super B12 + Folic Acid; Super Charged Energy; Super Daily No 2; Super Kids Chewable Multivitamin Multimineral (chewable Tablets); Super Multi; Super Pantoplex; Super Stress Capsules; Super Stress Mega B Plus 1000mg Vit C Tab; Super Vita Vim Multivitamins and Minerals; Super Vita-vim With Beta-carotene - Tab; Super Vitalex Ampoule Buvable; Super-pote Vitamin Supplement; Supravite 10ml Ampoule; Supravite Bouteille 250ml; Supravite C 1000; Supravite Stress Avec Vit E; Supravite Stress Avec Vit E Cuivre Et Zinc; Supravite Stress Avec Vit E Et Fer; Surbex 500 Filmtab; Surbex-500 With Iron; Surbex-500 With Zinc; Sveets; Swical-energy 3e Age; Swical-energy-2; Swiss One; Swiss One Multi Vit & Chel Min Tab; Swiss One Multivitamin and Mineral Caplet; Swiss One Timed Release Tab; T.R.I. B-plex Src; TL Gard Rx; TL-Care DHA; TL-Fluorivite; TL-Folate; TL-Icon; Taliment; Taliva; Tandem OB; Tandem Plus; Tar-end; Taron Forte; Taron-C DHA; Tendera-OB; Thrivite 19; Thrivite Rx; Time Release B 100 Compound - Tablet; Timed Release B Complex 100 Srt; Timed Release B-complex 100; Timed Release B-complex 50; Timed Release Vita-vim Srt; Tini-cal Ampoules; Tl-hem 150; Toni Com Liq; Tonicol Et A-D-C Ampoules/comprimes; Total Living Concepts Formula One - Tab; Totalvit Plus; Tozal; Trace Minerals Et/and B12 Tab; TriAdvance; TriStart DHA; Tricare Prenatal; Tricare Prenatal 2-part Daily Prenatal Vitamin System; Tricare Prenatal Compleat; Tricare Prenatal DHA One; Tricare Prenatal DHA One Rx Multivitamin; Tricare Prenatal DHA One With Folate; Tricare Prenatal Quick Dissolve; Tricon; Trigels-F Forte; Trinatal GT; Trinatal Rx 1; Trinatal Ultra; TriphroCaps; Triveen-Duo DHA; Udamin Sp; Ultimate OB DHA; Ultra Enerforce; Usana Megavitamin Tablets - Tab; V & M Vitamin and Mineral Supplement; V-Natal; VIL-Rx; VITAFOL Gummies; VP-HEME One; VP-Iron-C Plus; VP-Vite Rx; Vasculine; Vc II; Vege 1 Daily Tab; Vege Swiss One Multivitamin W Chel Mins Tab; Vena-Bal DHA; Viamon Ampoules Et Comprimes; Vigem 12 Liquid; Vimeral Tab; Vinate AZ; Virt Nate; Virt Vite GT; Virt-Advance; Virt-Bal DHA Plus; Virt-C DHA; Virt-Caps; Virt-Gard; Virt-Nate; Virt-Nate DHA; Virt-PN; Virt-PN DHA; Virt-PN Plus; Virt-Pn; Virt-Pn DHA; Virt-Vite; Virt-Vite Forte; Virt-Vite Plus; Vit B Complex Ctr; Vit B Complex Plus Vit C 550mg; Vit B12 Ctr Srt 1200mcg; Vit B12 Tab 500mcg; Vita B + C 500 Tab; Vita B Complex Tab; Vita Balance 2000; Vita Day Tab; Vita Plex Tab; Vita Vim Multivitamins and Minerals Tab; Vita Vim With Beta Carotene-caplet; Vita-B; Vita-B-75 Cap; Vita-folic-B Caps; Vita-vim - Tab; Vita-vim With Beta-carotene - Tab; Vita-worth B-complex Tablets; VitaPhil Aide; VitaXyme; Vitabanks Vitamin Tab; Vitachrom Gc; Vitaday Junior Tab; Vitaday Tab; Vitafer - Liq; Vitaflex Dietary Suplement; Vitafol; Vitafol Caplet; Vitafol Fe Plus; Vitafol Nano; Vitafol OB Caplet; Vitafol One; Vitafol Plus; Vitafol Ultra; Vitafol-OB Plus DHA Prenatal Supplement Plus DHA; Vital Be-100; Vitalife - Capsule; Vitamin & Mineral Formula 1 Dietary Supplement; Vitamin B + C Cap; Vitamin B 12 Tab 25mcg; Vitamin B Complex + C 300mg Cap; Vitamin B Complex + C 600mg Tab; Vitamin B Complex 100 Tab; Vitamin B Complex 50; Vitamin B Complex Plus 300mg Vitamin C; Vitamin B Complex Suppl; Vitamin B Complex Tab; Vitamin B Complex W C 300mg Tab; Vitamin B Complex W C Tab; Vitamin B Compound Tab; Vitamin B Compound W C Tab 500mg; Vitamin B Compound W Vit C 250mg Tab; Vitamin B Compound With Vitamin C Fortis Capsule Dtc; Vitamin B Tablets; Vitamin B-12 500 Mcg - Tablets; Vitamin B-12 Tablet; Vitamin B-12 With Folic Acid Tablets; Vitamin B12; Vitamin B12 (cyanocobalamin) 1000mcg Caplet; Vitamin B12 100 Mcg; Vitamin B12 100 Mcg Tablets; Vitamin B12 1000 Mcg; Vitamin B12 100mcg; Vitamin B12 250mcg; Vitamin B12 250mcg Tablets; Vitamin B12 500 Mcg; Vitamin B12 500mcg; Vitamin B12 50mcg Tab; Vitamin B12 Cap 500mcg USP; Vitamin B12 Cyanocobalamin Injection, USP 1000 Mcg/ml; Vitamin B12 Cyanocobalamine 500 Mcg; Vitamin B12 Inj 1000mcg/ml; Vitamin B12 Inj 100mcg/ml; Vitamin B12 Plus Tablets W Folic Acid; Vitamin B12 Srt 1000mcg; Vitamin B12 Tab 100mcg; Vitamin B12 Tab 250mcg; Vitamin B12 Tab 25mcg; Vitamin B12 Tab 500mcg; Vitamin B12 Tab 5mcg; Vitamin B12 Tablets 250mcg; Vitamin B12-folic Acid; Vitamin B6 & B12 With Folic Acid; Vitamin Deficiency Injectable System - B12; Vitamin Deficiency System; Vitamine 110 Liq; Vitamine B-12 Tab 100mcg; Vitamine B12 25 Mcg - Tablet; Vitamine B12 250mcg; Vitamine B12 Tab 25mcg; Vitamine B12 Tab 3mcg Chewable; Vitamine Du Groupe B Plus Fer - Liq; Vitamines Et Mineraux; Vitamines Et Mineraux Comprimes; Vitamines Et Mineraux Enfants 970; Vitaphil 90 DHA; Vitaphil DHA; Vitaplex; Vitazyme; Vitogen B Stress C Vit E Zinc & Cop; Vitogen B Stress C600; Vitogen Multiple Vitamins Tab; Vitrexate; Vitrexate FE; Vitrexyl; Vitrexyl plus Iron; Viva CT Prenatal; Viva Kids - Tab; Vol-Care Rx; Vol-Nate; Vol-Plus; Vol-Tab Rx; Vp-heme Ob; Vp-heme Ob DHA; Vp-pnv-dha; Vtb Vitamin and Mineral Supplement; Vyo Cylate - Pwr; Vyqua; Wellness Formula; WesTab Mini; WesTab Plus; WestGel DHA; Women's Change Formula; Women's Formula; Z Bec Tab; Zatean-Pn; Zatean-Pn DHA; Zatean-Pn Plus; Zoo Chews; Zoo Chews Plus Iron; ahoSAN; bioJET; hormaSAN forte; tensioSAN; vitaMedMD One Rx; vitaMedMD Rx Plus

> <INTERNATIONAL_BRANDS>
Bedodeka; Bedoz; Berubigen; Betalin; Cobione; Cobolin-M; Crystamine; Cyanoject; Cyomin; Cytakon; Cytamen; Dicopac; Neuroforte-R; Primabalt; Vitabee 12

$$$$
116
  Mrv0541 02231214272D          

 32 34  0  0  1  0            999 V2000
    3.5220   -0.2143    0.0000 O   0  0  0  0  0  0  0  0  0  0  0  0
    9.9988    1.0569    0.0000 O   0  0  0  0  0  0  0  0  0  0  0  0
   12.8598    0.2429    0.0000 O   0  0  0  0  0  0  0  0  0  0  0  0
   12.1501   -0.9974    0.0000 O   0  0  0  0  0  0  0  0  0  0  0  0
   12.8502    2.7179    0.0000 O   0  0  0  0  0  0  0  0  0  0  0  0
   11.4213    2.7124    0.0000 O   0  0  0  0  0  0  0  0  0  0  0  0
    4.9740   -1.0107    0.0000 N   0  0  0  0  0  0  0  0  0  0  0  0
    4.9740   -2.7179    0.0000 N   0  0  0  0  0  0  0  0  0  0  0  0
    7.1504   -1.4292    0.0000 N   0  0  0  0  0  0  0  0  0  0  0  0
    3.5220   -2.6894    0.0000 N   0  0  0  0  0  0  0  0  0  0  0  0
    2.8075   -1.4518    0.0000 N   0  0  0  0  0  0  0  0  0  0  0  0
   10.7180   -0.1779    0.0000 N   0  0  0  0  0  0  0  0  0  0  0  0
    2.0930   -2.6894    0.0000 N   0  0  0  0  0  0  0  0  0  0  0  0
    5.7214   -1.4347    0.0000 C   0  0  0  0  0  0  0  0  0  0  0  0
    5.7214   -2.2940    0.0000 C   0  0  0  0  0  0  0  0  0  0  0  0
    6.4343   -1.0194    0.0000 C   0  0  0  0  0  0  0  0  0  0  0  0
    4.2364   -1.4518    0.0000 C   0  0  0  0  0  0  0  0  0  0  0  0
    4.2364   -2.2769    0.0000 C   0  0  0  0  0  0  0  0  0  0  0  0
    7.8633   -1.0139    0.0000 C   0  0  0  0  0  0  0  0  0  0  0  0
    3.5220   -1.0393    0.0000 C   0  0  0  0  0  0  0  0  0  0  0  0
    2.8075   -2.2769    0.0000 C   0  0  0  0  0  0  0  0  0  0  0  0
   11.4309    0.2374    0.0000 C   0  0  1  0  0  0  0  0  0  0  0  0
   11.4277    1.0624    0.0000 C   0  0  0  0  0  0  0  0  0  0  0  0
    8.5793   -1.4236    0.0000 C   0  0  0  0  0  0  0  0  0  0  0  0
    7.8601   -0.1888    0.0000 C   0  0  0  0  0  0  0  0  0  0  0  0
    9.2890   -0.1834    0.0000 C   0  0  0  0  0  0  0  0  0  0  0  0
    9.2922   -1.0084    0.0000 C   0  0  0  0  0  0  0  0  0  0  0  0
    8.5730    0.2264    0.0000 C   0  0  0  0  0  0  0  0  0  0  0  0
   12.1406    1.4777    0.0000 C   0  0  0  0  0  0  0  0  0  0  0  0
   10.0019    0.2319    0.0000 C   0  0  0  0  0  0  0  0  0  0  0  0
   12.1469   -0.1723    0.0000 C   0  0  0  0  0  0  0  0  0  0  0  0
   12.1374    2.3027    0.0000 C   0  0  0  0  0  0  0  0  0  0  0  0
  1 20  2  0  0  0  0
  2 30  2  0  0  0  0
  3 31  1  0  0  0  0
  4 31  2  0  0  0  0
  5 32  1  0  0  0  0
  6 32  2  0  0  0  0
  7 14  1  0  0  0  0
  7 17  1  0  0  0  0
  8 15  1  0  0  0  0
  8 18  1  0  0  0  0
  9 16  1  0  0  0  0
  9 19  1  0  0  0  0
 10 18  1  0  0  0  0
 10 21  1  0  0  0  0
 11 20  1  0  0  0  0
 11 21  2  0  0  0  0
 22 12  1  1  0  0  0
 12 30  1  0  0  0  0
 13 21  1  0  0  0  0
 14 15  1  0  0  0  0
 14 16  1  0  0  0  0
 17 18  2  0  0  0  0
 17 20  1  0  0  0  0
 19 24  2  0  0  0  0
 19 25  1  0  0  0  0
 22 23  1  0  0  0  0
 22 31  1  0  0  0  0
 23 29  1  0  0  0  0
 24 27  1  0  0  0  0
 25 28  2  0  0  0  0
 26 27  2  0  0  0  0
 26 28  1  0  0  0  0
 26 30  1  0  0  0  0
 29 32  1  0  0  0  0
M  END
> <DATABASE_ID>
DB00116

> <DATABASE_NAME>
drugbank

> <SMILES>
NC1=NC(=O)C2=C(NCC(CNC3=CC=C(C=C3)C(=O)N[C@@H](CCC(O)=O)C(O)=O)N2)N1

> <INCHI_IDENTIFIER>
InChI=1S/C19H23N7O6/c20-19-25-15-14(17(30)26-19)23-11(8-22-15)7-21-10-3-1-9(2-4-10)16(29)24-12(18(31)32)5-6-13(27)28/h1-4,11-12,21,23H,5-8H2,(H,24,29)(H,27,28)(H,31,32)(H4,20,22,25,26,30)/t11?,12-/m0/s1

> <INCHI_KEY>
MSTNYGQPCMXVAQ-KIYNQFGBSA-N

> <FORMULA>
C19H23N7O6

> <MOLECULAR_WEIGHT>
445.4292

> <EXACT_MASS>
445.170981503

> <JCHEM_ACCEPTOR_COUNT>
12

> <JCHEM_AVERAGE_POLARIZABILITY>
42.9531289011855

> <JCHEM_BIOAVAILABILITY>
0

> <JCHEM_DONOR_COUNT>
8

> <JCHEM_FORMAL_CHARGE>
0

> <JCHEM_GHOSE_FILTER>
0

> <JCHEM_IUPAC>
(2S)-2-[(4-{[(2-amino-4-oxo-1,4,5,6,7,8-hexahydropteridin-6-yl)methyl]amino}phenyl)formamido]pentanedioic acid

> <ALOGPS_LOGP>
-0.96

> <JCHEM_LOGP>
-4.212630310185438

> <ALOGPS_LOGS>
-3.22

> <JCHEM_MDDR_LIKE_RULE>
1

> <JCHEM_NUMBER_OF_RINGS>
3

> <JCHEM_PHYSIOLOGICAL_CHARGE>
-2

> <JCHEM_PKA>
3.863700981959142

> <JCHEM_PKA_STRONGEST_ACIDIC>
3.5095693878577654

> <JCHEM_PKA_STRONGEST_BASIC>
3.5846826310688993

> <JCHEM_POLAR_SURFACE_AREA>
207.27000000000004

> <JCHEM_REFRACTIVITY>
121.3866

> <JCHEM_ROTATABLE_BOND_COUNT>
9

> <JCHEM_RULE_OF_FIVE>
0

> <ALOGPS_SOLUBILITY>
2.69e-01 g/l

> <JCHEM_TRADITIONAL_IUPAC>
tetrahydrofolic acid

> <JCHEM_VEBER_RULE>
0

> <DRUGBANK_ID>
DB00116

> <SECONDARY_ACCESSION_NUMBERS>
NUTR00056

> <DRUG_GROUPS>
nutraceutical

> <GENERIC_NAME>
Tetrahydrofolic acid

> <SYNONYMS>
5,6,7,8-tetrahydrofolate; 5,6,7,8-tetrahydrofolic acid; Tetrahydrofolate

$$$$

  Mrv1909 11281920422D          

 11 11  0  0  0  0            999 V2000
   -0.7942   -0.0787    0.0000 C   0  0  0  0  0  0  0  0  0  0  0  0
   -0.0796    0.3337    0.0000 C   0  0  0  0  0  0  0  0  0  0  0  0
    0.6348   -0.0787    0.0000 C   0  0  2  0  0  0  0  0  0  0  0  0
   -0.7942   -0.9037    0.0000 C   0  0  0  0  0  0  0  0  0  0  0  0
    0.6348   -0.9037    0.0000 N   0  0  0  0  0  0  0  0  0  0  0  0
   -1.5788    0.1761    0.0000 N   0  0  0  0  0  0  0  0  0  0  0  0
   -2.0635   -0.4912    0.0000 C   0  0  0  0  0  0  0  0  0  0  0  0
   -1.5787   -1.1587    0.0000 N   0  0  0  0  0  0  0  0  0  0  0  0
    1.3492    1.1587    0.0000 O   0  0  0  0  0  0  0  0  0  0  0  0
    1.3493    0.3337    0.0000 C   0  0  0  0  0  0  0  0  0  0  0  0
    2.0636   -0.0786    0.0000 O   0  0  0  0  0  0  0  0  0  0  0  0
  6  1  1  0  0  0  0
  1  2  1  0  0  0  0
  2  3  1  0  0  0  0
  3 10  1  0  0  0  0
  4  1  2  0  0  0  0
  8  4  1  0  0  0  0
  3  5  1  1  0  0  0
  7  6  2  0  0  0  0
  7  8  1  0  0  0  0
 10  9  2  0  0  0  0
 11 10  1  0  0  0  0
M  END
> <DATABASE_ID>
DB00117

> <DATABASE_NAME>
drugbank

> <SMILES>
N[C@@H](CC1=CNC=N1)C(O)=O

> <INCHI_IDENTIFIER>
InChI=1S/C6H9N3O2/c7-5(6(10)11)1-4-2-8-3-9-4/h2-3,5H,1,7H2,(H,8,9)(H,10,11)/t5-/m0/s1

> <INCHI_KEY>
HNDVDQJCIGZPNO-YFKPBYRVSA-N

> <FORMULA>
C6H9N3O2

> <MOLECULAR_WEIGHT>
155.1546

> <EXACT_MASS>
155.069476547

> <JCHEM_ACCEPTOR_COUNT>
4

> <JCHEM_ATOM_COUNT>
20

> <JCHEM_AVERAGE_POLARIZABILITY>
14.670259477862192

> <JCHEM_BIOAVAILABILITY>
1

> <JCHEM_DONOR_COUNT>
3

> <JCHEM_FORMAL_CHARGE>
0

> <JCHEM_GHOSE_FILTER>
0

> <JCHEM_IUPAC>
(2S)-2-amino-3-(1H-imidazol-5-yl)propanoic acid

> <ALOGPS_LOGP>
-2.67

> <JCHEM_LOGP>
-3.6160224799542067

> <ALOGPS_LOGS>
-0.34

> <JCHEM_MDDR_LIKE_RULE>
0

> <JCHEM_NUMBER_OF_RINGS>
1

> <JCHEM_PHYSIOLOGICAL_CHARGE>
0

> <JCHEM_PKA>
12.941172308417476

> <JCHEM_PKA_STRONGEST_ACIDIC>
1.8499726767043654

> <JCHEM_PKA_STRONGEST_BASIC>
9.437137464922305

> <JCHEM_POLAR_SURFACE_AREA>
92.0

> <JCHEM_REFRACTIVITY>
38.059

> <JCHEM_ROTATABLE_BOND_COUNT>
3

> <JCHEM_RULE_OF_FIVE>
1

> <ALOGPS_SOLUBILITY>
7.13e+01 g/l

> <JCHEM_TRADITIONAL_IUPAC>
2,4-dichlorobenzyl alcohol

> <JCHEM_VEBER_RULE>
0

> <DRUGBANK_ID>
DB00117

> <SECONDARY_ACCESSION_NUMBERS>
NUTR00030

> <DRUG_GROUPS>
investigational; nutraceutical

> <GENERIC_NAME>
Histidine

> <SYNONYMS>
(S)-4-(2-Amino-2-carboxyethyl)imidazole; (S)-a-Amino-1H-imidazole-4-propanoic acid; (S)-alpha-amino-1H-Imidazole-4-propanoic acid; (S)-alpha-Amino-1H-imidazole-4-propionic acid; (S)-α-amino-1H-Imidazole-4-propanoic acid; HIS; Histidina; Histidine; L-(−)-histidine; L-Histidin; L-Histidine

> <PRODUCTS>
2.5% Travasol Amino Acid Injection With Electrolytes In 10% Dextrose; 2.5% Travasol Amino Acid Injection With Electrolytes In 10% Dextrose Clinimix; 2.5% Travasol Amino Acid Injection Without Electrolytes In 10% Dextrose Quickmix; 2.5%travasol Amino Acid InJ.W.eleC.W.25%dex; 2.75% Travas. Amino Acid InJ.W.elecw.25%dex; 2.75% Travasol Amino Acid Injection With Electrolytes In 25% Dextrose Quickmix; 2.75% Travasol Amino Acid Injection With Electrolytes In 5% Dextrose Quickmix; 2.75%travasol Amino Acid InJ.W.eleC.W.5%dex.; 20% Prosol; 4.25% Amino Acid Injection Without Electrolytes In 20% Dextrose Quickmix; 4.25% Travasol Amino Acid Injection With Electrolytes In 10% Dextrose; 4.25% Travasol Amino Acid Injection With Electrolytes In 20% Dextrose; 4.25% Travasol Amino Acid Injection With Electrolytes In 20% Dextrose Quickmix; 4.25% Travasol Amino Acid Injection With Electrolytes In 25% Dextrose; 4.25% Travasol Amino Acid Injection With Electrolytes In 5% Dextrose Quickmix; 4.25% Travasol Amino Acid Injection Without Electrlytes In 10% Dextrose; 4.25% Travasol Amino Acid Injection Without Electrolytes In 20% Dextrose; 4.25% Travasol Amino Acid Injection Without Electrolytes In 25% Dextrose; 4.25% Travasol Amino Acid Without Electrolytes In 5% Dextrose Quickmix; 4.25%trav. Amino Acid InJ.W.O.elect.5%dext.; 4.25%travasol Amino Acid InJ.W.elecw.5%dex.; 5% Travasol Amino Acid Injection With Electrolytes In 20% Dextrose; 5% Travasol Amino Acid Injection Without Electrolytes In 20% Dextrose; 5% Travasol Amino Acid Injection Without Electrolytes In 25% Dextrose; 8.5% Freamine III; Aminosyn; Aminosyn 10% W Electrolytes; Aminosyn 3.5% M; Aminosyn 5%; Aminosyn 7%; Aminosyn 8.5%; Aminosyn 8.5% Injection With Electrolytes; Aminosyn HF; Aminosyn II; Aminosyn II 10% With Electrolytes; Aminosyn II 5% Inj; Aminosyn II 7% Injection; Aminosyn II 7% M In 10% Dextrose(dual Chamber); Aminosyn II 7% With 10% Dextrose; Aminosyn II 7% With 50% Dextrose; Aminosyn II 8.5% Injection; Aminosyn II 8.5% M In 20% Dextrose (dual Chamber); Aminosyn II 8.5% With 50% Dextrose; Aminosyn II In Dextrose Injection; Aminosyn II and Dextrose; Aminosyn II in Dextrose; Aminosyn II with Electrolytes; Aminosyn II with Electrolytes in Dextrose with Calcium; Aminosyn RF; Aminosyn RF Injection; Aminosyn Sulfite Free; Aminosyn-PF; Aminosyn-PF 10%; Aminosyn-PF 7%; CAREDO Treating Periodontitis Toothpastes 100g; Clinimix; Clinimix 2.5% Travasol Aa Without Electrolytes In 10% Dextrose Injec; Clinimix E; Clinisol; FreAmine HBC; FreAmine III; HepatAmine; Hepatasol; Kabiven; NephrAmine; Nephramine Liq IV; Novamine; Nutrineal Pd4; Olimel 3.3% E; Olimel 4.4%; Olimel 4.4% E; Olimel 5.7%; Olimel 5.7% E; Olimel 7.6%; Olimel 7.6% E; Perikabiven; Periolimel 2.5% E; Plenamine; Premasol - sulfite-free (Amino Acid); Primene; Primene 10%; Primene 10%-liq IV; ProSol; ProcalAmine; Quick Mix 2.5% Travasol Aa With Electrolytes With 25% Dextrose Injec; RenAmin; Renamin (amino Acids) Injection; Smofkabiven; Smofkabiven Electrolyte Free; Smofkabiven Extra Nitrogen; Smofkabiven Extra Nitrogen Electrolyte Free; Smofkabiven Peripheral; Synthamin; Travasol; Travasol Amino Acid Inj 5.5%; Travasol Amino Acid Inj 8.5%; Travasol E; Travasol Inj Without Electrolytes 5.5%; Travasol Inj Without Electrolytes 8.5%; Trepoxen-250; Trepoxicam-7.5; TrophAmine; Vamin 18 Electrolyte-free; Vamin N

> <SALTS>
Histidine monohydrochloride monohydrate

$$$$

  Mrv1909 02072015412D          

 27 29  0  0  0  0            999 V2000
    2.9475    0.7879    0.0000 N   0  0  0  0  0  0  0  0  0  0  0  0
    2.1630    1.0427    0.0000 C   0  0  0  0  0  0  0  0  0  0  0  0
    2.9647   -1.2966    0.0000 C   0  0  2  0  0  0  0  0  0  0  0  0
    3.4325    1.4551    0.0000 C   0  0  0  0  0  0  0  0  0  0  0  0
    2.1630    1.8677    0.0000 C   0  0  0  0  0  0  0  0  0  0  0  0
    1.5512    0.6553    0.0000 N   0  0  0  0  0  0  0  0  0  0  0  0
    1.8750   -0.7789    0.0000 O   0  0  0  0  0  0  0  0  0  0  0  0
    2.5484   -2.1114    0.0000 C   0  0  1  0  0  0  0  0  0  0  0  0
    2.9475    2.1225    0.0000 N   0  0  0  0  0  0  0  0  0  0  0  0
    1.5294    2.1434    0.0000 C   0  0  0  0  0  0  0  0  0  0  0  0
    0.9139    1.0463    0.0000 C   0  0  0  0  0  0  0  0  0  0  0  0
    0.8829   -1.2966    0.0000 C   0  0  1  0  0  0  0  0  0  0  0  0
    1.2919   -2.1114    0.0000 C   0  0  1  0  0  0  0  0  0  0  0  0
    2.9274   -2.8328    0.0000 O   0  0  0  0  0  0  0  0  0  0  0  0
    0.9139    1.7416    0.0000 N   0  0  0  0  0  0  0  0  0  0  0  0
    1.5294    2.8328    0.0000 N   0  0  0  0  0  0  0  0  0  0  0  0
    0.7603   -0.3749    0.0000 C   0  0  0  0  0  0  0  0  0  0  0  0
    0.8938   -2.7954    0.0000 O   0  0  0  0  0  0  0  0  0  0  0  0
    0.0832    0.0633    0.0000 S   0  3  0  0  0  0  0  0  0  0  0  0
   -0.5973   -0.3749    0.0000 C   0  0  0  0  0  0  0  0  0  0  0  0
    0.0669    0.9530    0.0000 C   0  0  0  0  0  0  0  0  0  0  0  0
   -1.2961    0.0633    0.0000 C   0  0  0  0  0  0  0  0  0  0  0  0
   -1.9951   -0.3749    0.0000 C   0  0  1  0  0  0  0  0  0  0  0  0
   -2.7229    0.0885    0.0000 C   0  0  0  0  0  0  0  0  0  0  0  0
   -1.9835   -1.2587    0.0000 N   0  0  0  0  0  0  0  0  0  0  0  0
   -3.4325   -0.3749    0.0000 O   0  0  0  0  0  0  0  0  0  0  0  0
   -2.7229    0.8525    0.0000 O   0  5  0  0  0  0  0  0  0  0  0  0
  1  2  1  0  0  0  0
  3  1  1  1  0  0  0
  1  4  1  0  0  0  0
  2  5  2  0  0  0  0
  2  6  1  0  0  0  0
  3  7  1  0  0  0  0
  3  8  1  0  0  0  0
  4  9  2  0  0  0  0
  5 10  1  0  0  0  0
  6 11  2  0  0  0  0
  7 12  1  0  0  0  0
  8 13  1  0  0  0  0
  8 14  1  6  0  0  0
 10 15  2  0  0  0  0
 10 16  1  0  0  0  0
 12 17  1  1  0  0  0
 13 18  1  6  0  0  0
 17 19  1  0  0  0  0
 19 20  1  0  0  0  0
 19 21  1  0  0  0  0
 20 22  1  0  0  0  0
 22 23  1  0  0  0  0
 23 24  1  0  0  0  0
 23 25  1  6  0  0  0
 24 26  2  0  0  0  0
 24 27  1  0  0  0  0
  5  9  1  0  0  0  0
 11 15  1  0  0  0  0
 12 13  1  0  0  0  0
M  CHG  2  19   1  27  -1
M  END
> <DATABASE_ID>
DB00118

> <DATABASE_NAME>
drugbank

> <SMILES>
C[S+](CC[C@H](N)C([O-])=O)C[C@H]1O[C@H]([C@H](O)[C@@H]1O)N1C=NC2=C1N=CN=C2N

> <INCHI_IDENTIFIER>
InChI=1S/C15H22N6O5S/c1-27(3-2-7(16)15(24)25)4-8-10(22)11(23)14(26-8)21-6-20-9-12(17)18-5-19-13(9)21/h5-8,10-11,14,22-23H,2-4,16H2,1H3,(H2-,17,18,19,24,25)/t7-,8+,10+,11+,14+,27?/m0/s1

> <INCHI_KEY>
MEFKEPWMEQBLKI-AIRLBKTGSA-N

> <FORMULA>
C15H22N6O5S

> <MOLECULAR_WEIGHT>
398.44

> <EXACT_MASS>
398.137239006

> <JCHEM_ACCEPTOR_COUNT>
10

> <JCHEM_ATOM_COUNT>
49

> <JCHEM_AVERAGE_NEUTRAL_MICROSPECIES_CHARGE>
1.004396401498243

> <JCHEM_AVERAGE_POLARIZABILITY>
39.26098478969112

> <JCHEM_BIOAVAILABILITY>
1

> <JCHEM_DONOR_COUNT>
4

> <JCHEM_FORMAL_CHARGE>
0

> <JCHEM_GHOSE_FILTER>
0

> <JCHEM_IUPAC>
(2S)-2-amino-4-({[(2S,3S,4R,5R)-5-(6-amino-9H-purin-9-yl)-3,4-dihydroxyoxolan-2-yl]methyl}(methyl)sulfaniumyl)butanoate

> <ALOGPS_LOGP>
0.05

> <JCHEM_LOGP>
-5.318677759807232

> <ALOGPS_LOGS>
-2.45

> <JCHEM_MDDR_LIKE_RULE>
1

> <JCHEM_NEUTRAL_CHARGE>
1

> <JCHEM_NUMBER_OF_RINGS>
3

> <JCHEM_PHYSIOLOGICAL_CHARGE>
1

> <JCHEM_PKA>
12.444250657594088

> <JCHEM_PKA_STRONGEST_ACIDIC>
1.7035398838473055

> <JCHEM_PKA_STRONGEST_BASIC>
9.414366136255632

> <JCHEM_POLAR_SURFACE_AREA>
185.46

> <JCHEM_REFRACTIVITY>
107.07199999999997

> <JCHEM_ROTATABLE_BOND_COUNT>
7

> <JCHEM_RULE_OF_FIVE>
1

> <ALOGPS_SOLUBILITY>
1.62e+00 g/l

> <JCHEM_TRADITIONAL_IUPAC>
(1S,2S,4R,8S,9S,11S,12R,13S)-12-fluoro-11-hydroxy-8-(2-hydroxyacetyl)-6,6,9,13-tetramethyl-5,7-dioxapentacyclo[10.8.0.0^{2,9}.0^{4,8}.0^{13,18}]icosa-14,17-dien-16-one

> <JCHEM_VEBER_RULE>
0

> <DRUGBANK_ID>
DB00118

> <SECONDARY_ACCESSION_NUMBERS>
NUTR00052

> <DRUG_GROUPS>
approved; investigational; nutraceutical

> <GENERIC_NAME>
Ademetionine

> <SYNONYMS>
Ademetionine; AdoMet; L-S-Adenosylmethionine; S-Adenosylmethionine; SAM; SAM-e; SAMe

> <INTERNATIONAL_BRANDS>
Donamet; Sam-Sulfate; SAMe; SAMe Rx-Mood

> <SALTS>
Ademetionine butanedisulfonate; Ademetionine disulfate ditosylate; Ademetionine disulfate monotosylate; Ademetionine disulfate tosylate; Ademetionine tosylate

$$$$

  Mrv0541 02231214272D          

  6  5  0  0  0  0            999 V2000
    2.0928    0.2063    0.0000 O   0  0  0  0  0  0  0  0  0  0  0  0
    3.5217    1.0312    0.0000 O   0  0  0  0  0  0  0  0  0  0  0  0
    2.8072   -1.0312    0.0000 O   0  0  0  0  0  0  0  0  0  0  0  0
    3.5217    0.2063    0.0000 C   0  0  0  0  0  0  0  0  0  0  0  0
    4.2361   -0.2063    0.0000 C   0  0  0  0  0  0  0  0  0  0  0  0
    2.8072   -0.2063    0.0000 C   0  0  0  0  0  0  0  0  0  0  0  0
  1  6  1  0  0  0  0
  2  4  2  0  0  0  0
  3  6  2  0  0  0  0
  4  5  1  0  0  0  0
  4  6  1  0  0  0  0
M  END
> <DATABASE_ID>
DB00119

> <DATABASE_NAME>
drugbank

> <SMILES>
CC(=O)C(O)=O

> <INCHI_IDENTIFIER>
InChI=1S/C3H4O3/c1-2(4)3(5)6/h1H3,(H,5,6)

> <INCHI_KEY>
LCTONWCANYUPML-UHFFFAOYSA-N

> <FORMULA>
C3H4O3

> <MOLECULAR_WEIGHT>
88.0621

> <EXACT_MASS>
88.016043994

> <JCHEM_ACCEPTOR_COUNT>
3

> <JCHEM_AVERAGE_POLARIZABILITY>
7.3105058729791725

> <JCHEM_BIOAVAILABILITY>
1

> <JCHEM_DONOR_COUNT>
1

> <JCHEM_FORMAL_CHARGE>
0

> <JCHEM_GHOSE_FILTER>
0

> <JCHEM_IUPAC>
2-oxopropanoic acid

> <ALOGPS_LOGP>
-0.38

> <JCHEM_LOGP>
0.06587395333333337

> <ALOGPS_LOGS>
0.18

> <JCHEM_MDDR_LIKE_RULE>
0

> <JCHEM_NUMBER_OF_RINGS>
0

> <JCHEM_PHYSIOLOGICAL_CHARGE>
-1

> <JCHEM_PKA_STRONGEST_ACIDIC>
2.93012330309767

> <JCHEM_PKA_STRONGEST_BASIC>
-9.583170381128017

> <JCHEM_POLAR_SURFACE_AREA>
54.37

> <JCHEM_REFRACTIVITY>
17.9897

> <JCHEM_ROTATABLE_BOND_COUNT>
1

> <JCHEM_RULE_OF_FIVE>
1

> <ALOGPS_SOLUBILITY>
1.34e+02 g/l

> <JCHEM_TRADITIONAL_IUPAC>
pyruvic acid

> <JCHEM_VEBER_RULE>
0

> <DRUGBANK_ID>
DB00119

> <SECONDARY_ACCESSION_NUMBERS>
NUTR00050; DB11194

> <DRUG_GROUPS>
approved; investigational; nutraceutical

> <GENERIC_NAME>
Pyruvic acid

> <SYNONYMS>
2-ketopropionic acid; 2-oxopropanoic acid; 2-Oxopropansäure; 2-Oxopropionsäure; a-Ketopropionic acid; Acetylformic acid; acide pyruvique; alpha-ketopropionic acid; Brenztraubensäure; BTS; Pyroracemic acid; α-ketopropionic acid; α-Oxopropionsäure

> <PRODUCTS>
Rejuvesol

> <SALTS>
Calcium pyruvate; Sodium pyruvate

$$$$

  Mrv1909 11291917052D          

 12 12  0  0  0  0            999 V2000
    0.0000    0.4125    0.0000 C   0  0  0  0  0  0  0  0  0  0  0  0
    0.7144    0.0000    0.0000 C   0  0  2  0  0  0  0  0  0  0  0  0
   -0.7144    0.0000    0.0000 C   0  0  0  0  0  0  0  0  0  0  0  0
   -1.4289   -1.2374    0.0000 C   0  0  0  0  0  0  0  0  0  0  0  0
   -2.1433   -0.8250    0.0000 C   0  0  0  0  0  0  0  0  0  0  0  0
   -2.1433    0.0000    0.0000 C   0  0  0  0  0  0  0  0  0  0  0  0
   -1.4289    0.4125    0.0000 C   0  0  0  0  0  0  0  0  0  0  0  0
   -0.7144   -0.8250    0.0000 C   0  0  0  0  0  0  0  0  0  0  0  0
    0.7144   -0.8250    0.0000 N   0  0  0  0  0  0  0  0  0  0  0  0
    1.4289    0.4125    0.0000 C   0  0  0  0  0  0  0  0  0  0  0  0
    2.1433    0.0000    0.0000 O   0  0  0  0  0  0  0  0  0  0  0  0
    1.4289    1.2374    0.0000 O   0  0  0  0  0  0  0  0  0  0  0  0
  1  2  1  0  0  0  0
  2 10  1  0  0  0  0
  3  1  1  0  0  0  0
  5  4  1  0  0  0  0
  6  5  2  0  0  0  0
  7  6  1  0  0  0  0
  3  7  2  0  0  0  0
  3  8  1  0  0  0  0
  4  8  2  0  0  0  0
  2  9  1  1  0  0  0
 11 10  1  0  0  0  0
 12 10  2  0  0  0  0
M  END
> <DATABASE_ID>
DB00120

> <DATABASE_NAME>
drugbank

> <SMILES>
N[C@@H](CC1=CC=CC=C1)C(O)=O

> <INCHI_IDENTIFIER>
InChI=1S/C9H11NO2/c10-8(9(11)12)6-7-4-2-1-3-5-7/h1-5,8H,6,10H2,(H,11,12)/t8-/m0/s1

> <INCHI_KEY>
COLNVLDHVKWLRT-QMMMGPOBSA-N

> <FORMULA>
C9H11NO2

> <MOLECULAR_WEIGHT>
165.1891

> <EXACT_MASS>
165.078978601

> <JCHEM_ACCEPTOR_COUNT>
3

> <JCHEM_ATOM_COUNT>
23

> <JCHEM_AVERAGE_POLARIZABILITY>
17.0319763846329

> <JCHEM_BIOAVAILABILITY>
1

> <JCHEM_DONOR_COUNT>
2

> <JCHEM_FORMAL_CHARGE>
0

> <JCHEM_GHOSE_FILTER>
0

> <JCHEM_IUPAC>
(2S)-2-amino-3-phenylpropanoic acid

> <ALOGPS_LOGP>
-1.35

> <JCHEM_LOGP>
-1.184438468740489

> <ALOGPS_LOGS>
-1.60

> <JCHEM_MDDR_LIKE_RULE>
0

> <JCHEM_NUMBER_OF_RINGS>
1

> <JCHEM_PHYSIOLOGICAL_CHARGE>
0

> <JCHEM_PKA_STRONGEST_ACIDIC>
2.469229772182635

> <JCHEM_PKA_STRONGEST_BASIC>
9.446936344396194

> <JCHEM_POLAR_SURFACE_AREA>
63.31999999999999

> <JCHEM_REFRACTIVITY>
45.11630000000001

> <JCHEM_ROTATABLE_BOND_COUNT>
3

> <JCHEM_RULE_OF_FIVE>
1

> <ALOGPS_SOLUBILITY>
4.14e+00 g/l

> <JCHEM_TRADITIONAL_IUPAC>
palladium(2+) (4S,5S,14R,15R)-10-acetyl-4-(2-carboxyethyl)-15-ethyl-2-(2-methoxy-2-oxoethyl)-5,9,14,19-tetramethyl-20-[(2-sulfoethyl)carbamoyl]-21,22,23,24-tetraazapentacyclo[16.2.1.1^{3,6}.1^{8,11}.1^{13,16}]tetracosa-1,3(24),6,8,10,12,16(22),17,19-nonaene-21,23-diide

> <JCHEM_VEBER_RULE>
0

> <DRUGBANK_ID>
DB00120

> <SECONDARY_ACCESSION_NUMBERS>
NUTR00044

> <DRUG_GROUPS>
approved; investigational; nutraceutical

> <GENERIC_NAME>
Phenylalanine

> <SYNONYMS>
(S)-2-Amino-3-phenylpropionic acid; (S)-alpha-Amino-beta-phenylpropionic acid; 3-phenyl-L-alanine; beta-Phenyl-L-alanine; F; Fenilalanina; L-Phenylalanine; Phe; Phenylalanine; Phenylalaninum; β-phenyl-L-alanine

> <PRODUCTS>
2.5% Travasol Amino Acid Injection With Electrolytes In 10% Dextrose; 2.5% Travasol Amino Acid Injection With Electrolytes In 10% Dextrose Clinimix; 2.5% Travasol Amino Acid Injection Without Electrolytes In 10% Dextrose Quickmix; 2.5%travasol Amino Acid InJ.W.eleC.W.25%dex; 2.75% Travas. Amino Acid InJ.W.elecw.25%dex; 2.75% Travasol Amino Acid Injection With Electrolytes In 25% Dextrose Quickmix; 2.75% Travasol Amino Acid Injection With Electrolytes In 5% Dextrose Quickmix; 2.75%travasol Amino Acid InJ.W.eleC.W.5%dex.; 20% Prosol; 4.25% Amino Acid Injection Without Electrolytes In 20% Dextrose Quickmix; 4.25% Travasol Amino Acid Injection With Electrolytes In 10% Dextrose; 4.25% Travasol Amino Acid Injection With Electrolytes In 20% Dextrose; 4.25% Travasol Amino Acid Injection With Electrolytes In 20% Dextrose Quickmix; 4.25% Travasol Amino Acid Injection With Electrolytes In 25% Dextrose; 4.25% Travasol Amino Acid Injection With Electrolytes In 5% Dextrose Quickmix; 4.25% Travasol Amino Acid Injection Without Electrlytes In 10% Dextrose; 4.25% Travasol Amino Acid Injection Without Electrolytes In 20% Dextrose; 4.25% Travasol Amino Acid Injection Without Electrolytes In 25% Dextrose; 4.25% Travasol Amino Acid Without Electrolytes In 5% Dextrose Quickmix; 4.25%trav. Amino Acid InJ.W.O.elect.5%dext.; 4.25%travasol Amino Acid InJ.W.elecw.5%dex.; 5% Travasol Amino Acid Injection With Electrolytes In 20% Dextrose; 5% Travasol Amino Acid Injection Without Electrolytes In 20% Dextrose; 5% Travasol Amino Acid Injection Without Electrolytes In 25% Dextrose; 8.5% Freamine III; Aminosyn; Aminosyn 10% W Electrolytes; Aminosyn 3.5% M; Aminosyn 5%; Aminosyn 7%; Aminosyn 8.5%; Aminosyn 8.5% Injection With Electrolytes; Aminosyn HF; Aminosyn II; Aminosyn II 10% With Electrolytes; Aminosyn II 5% Inj; Aminosyn II 7% Injection; Aminosyn II 7% M In 10% Dextrose(dual Chamber); Aminosyn II 7% With 10% Dextrose; Aminosyn II 7% With 50% Dextrose; Aminosyn II 8.5% Injection; Aminosyn II 8.5% M In 20% Dextrose (dual Chamber); Aminosyn II 8.5% With 50% Dextrose; Aminosyn II In Dextrose Injection; Aminosyn II and Dextrose; Aminosyn II in Dextrose; Aminosyn II with Electrolytes; Aminosyn II with Electrolytes in Dextrose with Calcium; Aminosyn RF; Aminosyn RF Injection; Aminosyn Sulfite Free; Aminosyn-PF; Aminosyn-PF 10%; Aminosyn-PF 7%; Clinimix; Clinimix 2.5% Travasol Aa Without Electrolytes In 10% Dextrose Injec; Clinimix E; Clinisol; FreAmine HBC; FreAmine III; HepatAmine; Hepatasol; Kabiven; NephrAmine; Nephramine Liq IV; Novamine; Nutrineal Pd4; Olimel 3.3% E; Olimel 4.4%; Olimel 4.4% E; Olimel 5.7%; Olimel 5.7% E; Olimel 7.6%; Olimel 7.6% E; Perikabiven; Periolimel 2.5% E; Plenamine; Premasol - sulfite-free (Amino Acid); Primene; Primene 10%; Primene 10%-liq IV; ProSol; ProcalAmine; Quick Mix 2.5% Travasol Aa With Electrolytes With 25% Dextrose Injec; RenAmin; Renamin (amino Acids) Injection; Smofkabiven; Smofkabiven Electrolyte Free; Smofkabiven Extra Nitrogen; Smofkabiven Extra Nitrogen Electrolyte Free; Smofkabiven Peripheral; Synthamin; Travasol; Travasol Amino Acid Inj 5.5%; Travasol Amino Acid Inj 8.5%; Travasol E; Travasol Inj Without Electrolytes 5.5%; Travasol Inj Without Electrolytes 8.5%; TrophAmine; Vamin 18 Electrolyte-free; Vamin N

> <SALTS>
Phenylalanine hydrochloride; Phenylalanine sodium

$$$$
121
  Mrv0541 02231214272D          

 18 19  0  0  1  0            999 V2000
    5.0072   -1.4297    0.0000 S   0  0  0  0  0  0  0  0  0  0  0  0
    1.6501   -1.4297    0.0000 O   0  0  0  0  0  0  0  0  0  0  0  0
    7.7167    2.0975    0.0000 O   0  0  0  0  0  0  0  0  0  0  0  0
    6.3583    2.5414    0.0000 O   0  0  0  0  0  0  0  0  0  0  0  0
    2.9603   -0.7622    0.0000 N   0  0  0  0  0  0  0  0  0  0  0  0
    2.9603   -2.0972    0.0000 N   0  0  0  0  0  0  0  0  0  0  0  0
    3.7448   -1.0172    0.0000 C   0  0  1  0  0  0  0  0  0  0  0  0
    3.7448   -1.8423    0.0000 C   0  0  2  0  0  0  0  0  0  0  0  0
    4.5257   -0.7658    0.0000 C   0  0  2  0  0  0  0  0  0  0  0  0
    4.5257   -2.0937    0.0000 C   0  0  0  0  0  0  0  0  0  0  0  0
    4.7819    0.0186    0.0000 C   0  0  0  0  0  0  0  0  0  0  0  0
    5.5893    0.1887    0.0000 C   0  0  0  0  0  0  0  0  0  0  0  0
    2.4752   -1.4297    0.0000 C   0  0  0  0  0  0  0  0  0  0  0  0
    5.8456    0.9729    0.0000 C   0  0  0  0  0  0  0  0  0  0  0  0
    6.6530    1.1431    0.0000 C   0  0  0  0  0  0  0  0  0  0  0  0
    6.9093    1.9273    0.0000 C   0  0  0  0  0  0  0  0  0  0  0  0
    3.7458   -0.3571    0.0000 H   0  0  0  0  0  0  0  0  0  0  0  0
    3.7458   -2.5023    0.0000 H   0  0  0  0  0  0  0  0  0  0  0  0
  1  9  1  0  0  0  0
  1 10  1  0  0  0  0
  2 13  2  0  0  0  0
  3 16  1  0  0  0  0
  4 16  2  0  0  0  0
  5  7  1  0  0  0  0
  5 13  1  0  0  0  0
  6  8  1  0  0  0  0
  6 13  1  0  0  0  0
  7  8  1  0  0  0  0
  7  9  1  0  0  0  0
  7 17  1  1  0  0  0
  8 10  1  0  0  0  0
  8 18  1  1  0  0  0
  9 11  1  6  0  0  0
 11 12  1  0  0  0  0
 12 14  1  0  0  0  0
 14 15  1  0  0  0  0
 15 16  1  0  0  0  0
M  END
> <DATABASE_ID>
DB00121

> <DATABASE_NAME>
drugbank

> <SMILES>
[H][C@]12CS[C@@H](CCCCC(O)=O)[C@@]1([H])NC(=O)N2

> <INCHI_IDENTIFIER>
InChI=1S/C10H16N2O3S/c13-8(14)4-2-1-3-7-9-6(5-16-7)11-10(15)12-9/h6-7,9H,1-5H2,(H,13,14)(H2,11,12,15)/t6-,7-,9-/m0/s1

> <INCHI_KEY>
YBJHBAHKTGYVGT-ZKWXMUAHSA-N

> <FORMULA>
C10H16N2O3S

> <MOLECULAR_WEIGHT>
244.311

> <EXACT_MASS>
244.088163078

> <JCHEM_ACCEPTOR_COUNT>
3

> <JCHEM_AVERAGE_POLARIZABILITY>
24.919241783202757

> <JCHEM_BIOAVAILABILITY>
1

> <JCHEM_DONOR_COUNT>
3

> <JCHEM_FORMAL_CHARGE>
0

> <JCHEM_GHOSE_FILTER>
1

> <JCHEM_IUPAC>
5-[(3aS,4S,6aR)-2-oxo-hexahydro-1H-thieno[3,4-d]imidazolidin-4-yl]pentanoic acid

> <ALOGPS_LOGP>
0.17

> <JCHEM_LOGP>
0.31942364800000006

> <ALOGPS_LOGS>
-2.30

> <JCHEM_MDDR_LIKE_RULE>
0

> <JCHEM_NUMBER_OF_RINGS>
2

> <JCHEM_PHYSIOLOGICAL_CHARGE>
-1

> <JCHEM_PKA>
13.546990539562877

> <JCHEM_PKA_STRONGEST_ACIDIC>
4.4043165776835425

> <JCHEM_PKA_STRONGEST_BASIC>
-1.863639696129737

> <JCHEM_POLAR_SURFACE_AREA>
78.42999999999999

> <JCHEM_REFRACTIVITY>
60.0509

> <JCHEM_ROTATABLE_BOND_COUNT>
5

> <JCHEM_RULE_OF_FIVE>
1

> <ALOGPS_SOLUBILITY>
1.22e+00 g/l

> <JCHEM_TRADITIONAL_IUPAC>
biotin

> <JCHEM_VEBER_RULE>
0

> <DRUGBANK_ID>
DB00121

> <SECONDARY_ACCESSION_NUMBERS>
NUTR00019

> <DRUG_GROUPS>
approved; investigational; nutraceutical

> <GENERIC_NAME>
Biotin

> <SYNONYMS>
(+)-cis-Hexahydro-2-oxo-1H-thieno[3,4]imidazole-4-valeric acid; (3aS,4S,6aR)-Hexahydro-2-oxo-1H-thieno[3,4-d]imidazole-4-valeric acid; 5-(2-oxohexahydro-1H-thieno[3,4-d]imidazol-4-yl)pentanoic acid; Biotin; Biotina; Biotine; Biotinum; cis-(+)-Tetrahydro-2-oxothieno[3,4]imidazoline-4-valeric acid; cis-Hexahydro-2-oxo-1H-thieno(3,4)imidazole-4-valeric acid; cis-Tetrahydro-2-oxothieno(3,4-d)imidazoline-4-valeric acid; Coenzyme R; D-(+)-biotin; D-Biotin; Vitamin B7; Vitamin H

> <PRODUCTS>
24 Multivitamins + Minerals; 50 Plus; 50 Plus Multiple Vitamins & Minerals; 574H Cell Care; Acti-biotin 300 Caplet 300mcg; Adult Formula 50+; Adult Infuvite Multiple Vitamins; Alkadrenergy Tablets; Am Caps; Amerix Biotin; Amerix Multivitamin; Anti Hair Loss; Avon Vitadvance Multi-kids Complete; B 50 Capsules; B Complex 25mg Vitamin Supplement; B Complex 50 Vitamin Cap; B Complex 50+ Caplet; B Complex W Vit C W Non-med Yeast&liver Tab; B Compound 50mg Tab; B-100 Caps; B-100 Complex Tablets; B-100 Hi Potency B Vitamins Tab; B-100 Vitamin Supplement; B-50 Complex; B-50 Complex Tab; B-50 Hi Potency B Vitamins Tab; B-complex; B-complex 100; B-complex 50; B-complex Tab; B-complex Tablets; B-complex With Vitamin C, Biotin, Folic Acid; B-complex-50 Tab; B-plex; B-plus - Tab; B50 B Complex Tab; B50 Complex; Bacmin; Balanced B 125 Srt; Balanced B-100 Timed Release; Balanced B-50 B-complex Vitamins Tab; Balanced B-50 B-complex Vitamins, Timed Rele; Balanced B-50 Complex; Balanced B100; Balanced B50 Complex; Bev 29 Tab; Bev B-150; Biona-vit Controls and Prevents Hair Loss; Biotin 300 Mcg - Tablet; Biotin 300 Mcg Tablet; Biotin 300mcg; Biotin 500mcg; Biotin Cap 500mcg; Biotin Ctr Srt 1000mcg; Biotin Tab 250mcg; Biotin Tab 300mcg; Body Rox; Bonnoir Hair Medi; Bonogen Activator hair loss treatment; Bonogen Plus hair care shampoo; Bonogen hair care shampoo; Born Hair; C-B Complex; C. Vit-min Formula; Carbassist Tablets; Carione Rg; Cavan Heme OB; Cda-21 Vitamins With Non-medicinal Probiotic Complex; Central-vite 18 Essential; Century Complete; Chela-chromium 200; Chewable Adult Multivitamins With Minerals; Chewable Children's Complete Multivitamins With Essential Minerals; Children's Chew Multi & Min Tab; Children's Chewable Multi-vitamin Complete With Minerals; Children's Chewable Multivitamin Complete With Minerals; Children's Chewable Multivitamin and Multimineral; Children's Chewable Multivitamins With Minerals; Children's Chewable Multivitamins and Minerals; Children's Chewable Tab; Children's Chewable Vit and Min Tab; Childrens Chewab Vitamin W Chel Minerals; Classic Swiss One 10 Multivitamin and Mineral Tab; Complete Mega B; Complete Multivitamins and Minerals Tablets Timed Release; Complete Multivitamins and Minerals for Children; Complex-75; Complexe B 75mg; Complexe B Compose 75; Complexe B-75; Concept DHA; Concept OB; Corvita; Corvite; Corvite 150; Corvite Free; D-biotin Tab 5mcg A Croquer; DaVITE; Daily Energy Brand Vitamin & Mineral Drink Mix; Derma-force; Dexifol; Dia-vite; Dialyvite; Dialyvite 3000; Dialyvite 5000; Dialyvite Supreme D; Dialyvite with Zinc; Diaplex; Distilpure Msm; Divista; Doctor's Choice Brand for Men; Doll Lash; Dong Sung Anti-Hair Loss; Dong Sung Monelyn; Dothelle DHA; Earthpals Children's Chewables Multi-vitamin & Mineral Tablets; Efferlife Multivitamins and Minerals; Enrich Core Pack - Children Vitamin and Mineral Supplement; Envirocomplex; Enviroflex - Tab; Escavite; Escavite D; Essential B Tablets; Essential Vitamins and Minerals; Extra Once A Day; Extra P.N. Vitamin-mineral Drink Mix; Extra-Virt Plus DHA; FeRiva; FeRiva FA; FeRivaFA; Fem Time Tab; Floriva; Floriva Plus; Folcaps Care One; Folika-MG; Folika-NC; Folika-T; Folivane-OB; Folivane-Plus with Ascorbic Acid Precursors; For-2; Formula F L W; Formula Gly; Formula Hh; Formula O-care Vitamin and Mineral Supplement; Formula O.C.; Formula Pro-B; Forty Plus Vitamin Supplement; Genicin Vita-S; Gentle Therapy; Glyco Lite Ect; Glyco Plus Ect; Grand Master Formula Tab; Great Day/am Formula Tab; Hair-loss Recovery Conditioner; HairQ-Plus; Hairjoy Eyebrow Signature; Hairjoy Eyelash Signature; Harvest Of Values All B Complex Tab; HemeNatal OB; HemeNatal OB plus DHA; Hi Potency B Complex W Chelated Minerals; Hi Potency B52 B Complex Tab; Hi Potency Balanced B-100 Complex - Tab; Hi Potency Multi Tab; Hi Potency Stress B Tension With C; High Potency Multivitamins & Minerals Caplets; Hill.vite; Hoa 1; Hsn Formula; Hylavite; Hypo Vites Tab; Infuvite Adult Multiple Vitamins; Innersource Tab; Insur-all Vitamin Supplement; Integra Plus; Iron 25mg With Vit B-cmplx, Vit C, Cu & Mo; Irospan 24/6; Isotonix Multitech Vitamin Mineral Supplemen; K.L. Vitamin-mineral; Kanga Sport Vitamins B & C Plus Minerals; Kanga-B Vitamin B Group + C; Kanga-V Multivitamins & Minerals; Kanga-kid Multi-vitamin & Mineral; Kindervites; Lancell hair loss prevention hair grower clean formula; Leritone Junior; Lipo-B-C Tab; Liqui B Complex; Liqui B Complex Plus; Liqui Vita; Liquid B Complex 50; Lorid; Low Potency B Complex Tab; Luna Vitamin and Mineral Bar for Women; M.V.I. 12; M.V.I. Adult; M.V.I. Paediatric; M.V.I. Pediatric; M.V.I.-12; MYNEPHROCAPS DIALYSIS/STRESS Vitamin Supplement; Magnum-75 Vitamin and Mineral Supplement; Maintain Multiple Vitamin & Minerals; Master Key Multi Vitamin Multi Mineral Formula 2; Materna; Materna - Tab; Materna-tab; MaxFe; Maximum Once A Day; Maxine Vitamin and Mineral Supplement; Medi Msm (methyl Sulfonyl Methane); Mega 13 Multivitamin Formula; Mega Balance; Mega Capsules; Mega Plex III - Pck; Mega Plex IV - Pck; Mega Vitaminerals; Mega-vim 75 With Beta-carotene - Tablets; Megavite Rx; Men's; Men's 50+; Men's Biomultiple Vitamin and Mineral Supplement; Men's Multi Master Formula; Milltrium Senior Vitamin and Mineral Supplement; Mini-B Tab; MoReturn Hair; MoReturn Hair Tonic; MoRreturn Hair Care; Multi #2; Multi - N.T.O.x Formula - Tab; Multi 12 Injection; Multi B; Multi II IV Vi Tab; Multi Nt-OX; Multi Plex I - Tab; Multi Plex II - Tab; Multi Pro; Multi Tabs; Multi Vitamin - Mineral; Multi Vitamins & Minerals; Multi-11; Multi-12 Pediatric; Multi-12/k1 Pediatric; Multi-actin; Multi-force for Women Tab; Multi-vitamins With Minerals; Multicaps; Multipack II; Multiple Vitamins and Minerals; Multiple Vitamins and Minerals Capsules; Multitabs; Multivitamin & Minerals (iron Free); Multivitamin & Multimineral; Multivitamine; Multivitamines Et Mineraux Reguliers / Regular Multivitamins and Minerals; Multivitamins and Minerals - Complete; Multivitamins and Minerals Tablets; Multivitamins and Minerals With Betacarotene Tablets; Multivitamins and Minerals for Men; Multivitamins and Minerals for Women; Multivitamins and Minerals for Young Men; Multivitamins and Minerals for Young Women; Multivitamins and Multiminerals Formula Regular Tablet; Multra Plex; Multra With Iron; Mvc 9 Plus 3 Inj; Mvc 9+4 Inj; Myhephron Dialysis and Stress Supplement; NEONATAL Complete; Nata Komplete; Natal-V RX Multi-vitamin/Multi-mineral; Natural Source Spectrum With Beta Carotene; Ndm Scalp; Neonatal DHA; Neonatal19; NephPlex Rx; Nephrocaps; Nephrocaps-QT; Nephron FA; New Chapter's D'adamo 4 Your Type Multiple for Type O; Nexa Plus; Nioxin Recharging Complex; Nrg Plus Liq; Nutra Boost; Nutra-clear; Nutrilite Double X; Nutrol-B-complex; Olympian Multi Vit Plus Minerals Tab; Omega-3 Rx Complete; Onccor; One A Day Advance Adults; One A Day Advance Adults 50+; One A Day Multiple Vit W Minerals; One A Day Tab; One Daily Vitamin and Mineral Dietary Supplement; One Per Day Vitamin and Mineral Dietary Supplement; Only One - Tablet; Original Bioscal Forte Multi-vitamin Supplement Capsules; Orti B; P.N. Vitamin-mineral Drink; P.N.P. Vitamin Drink; PM Caps; PNV Tabs 29-1; PNV-Omega; PNV-Select; PRENATE Enhance; PRENATE Restore; Paire OB Plus DHA; Palm Springs Multvit and Min Tab; Paramettes Adults; Pediatric Infuvite Multiple Vitamins; Pediatric Infuvite Multiple Vitamins for Infusion; Pepplus Special Care; Phytopecia Hair Tonic; Polymine Avec Zinc Et Cuivre; PreGen DHA; PreGenna; Prefera OB plus DHA; PreferaOB; PreferaOB ONE; PreferaOB One; PreferaOB plus DHA; Premium Prenatal; Premium Prenatal - Tablets; Prena1; Prena1 Plus; Prenatal Formula Tab; Prenatal Mega Antioxidant; Prenatal Supplement - Tab; Prenatal Vi-min; Prenatal Vitamin No 53 Iron Fum Folic Acid Docusate CA DHA; Prenatal Vitamin and Mineral Supplement; Prenatal Vitamin and Mineral Supplement -tab; Prenatal Vitamin and Mineral Supplement Tab; Prenatal Vitamins and Minerals Tablets; Prenatal and Post Partum Supplement; Prenate Chewable; Prenate Elite; Prenate Essential; Prenate Mini; Prenate Pixie; Prenate Star; Prenatvite Complete; PrimaCare; Pro Hers Vanilla; Pro His Mint; Pro Pcos Citrus; Q.T. Vitamin and Mineral Drink Mix; Quflora FE; Quflora FE Pediatric Drops; RE FAC-x; RE Nata OB; Renal Caps Dialysis/Stress Vitamin Supplement; Reno Caps; Replavite; Revit Multi-vitamins and Minerals; Revitalize Multi-vitamin and Mineral Complex; Revitex Ampoules Et Comprimes; Right Choice A.M. Multi Formula - Caplet; Scalp Scaling; Se-Natal One; Senior Multi One; Shen Min Vitamin Supplement; Shen Min Vitamin and Mineral Supplement; Silica-calcium With Biotin Capsules; Sincera - Tablets; Spai-sons Procapell; Spai-sons Prolac-vit; Spectrum 2 Cap; Spectrum Performa Multivitamins and Minerals Tablets; Stom #2; Stress B & C Caplet; Stress B Capsules With Vitamin C; Stress B Complex With C and E Tab; Stress B Complex With C, E & Iron; Stress B Complex With C, E and Iron Tab; Stress B Complex With C,e, Zinc and Copper; Stress B With 1000 Mg Vitamin C; Stress B&c Tab; Stress B-complex Plus Iron With Vitamins C&e; Stress Complex 600 Avec Vit E Cuivre Zinc; Stress Ctr Srt; Stress Formula; Stress Formula + Iron; Stress Formula B-comp + 500mg Vit C Tab; Stress Formula Multi-B Comp + 500mg Vit C Cap; Stress Formula Multivitamin Tablets USP; Stress Formula Tab; Stress Formula Vit B With C Complex; Stress Forte Plus Lipotropic Factors; Stress Vitamin B With C Complex Tablets; Stressmates; Stresstabs + Zinc-copper; Strovite Forte Caplet; Strovite One Caplets; Super B Compound W 500mg Vit C; Super Charged Energy; Super Daily No 2; Super Kids Chewable Multivitamin Multimineral (chewable Tablets); Super Multi; Super Pantoplex; Super Stress Capsules; Super Stress Mega B Plus 1000mg Vit C Tab; Super Vita Vim Multivitamins and Minerals; Super Vita-vim With Beta-carotene - Tab; Super-pote Vitamin Supplement; Supplement De Multivitamines Infusion Arome Fruits Rouges; Supravite Stress Avec Vit E; Supravite Stress Avec Vit E Cuivre Et Zinc; Supravite Stress Avec Vit E Et Fer; Swical-energy 3e Age; Swiss One; Swiss One Multi Vit & Chel Min Tab; Swiss One Multivitamin and Mineral Caplet; Swiss Total One; T.R.I. B-plex Src; TL-Care DHA; TL-Fluorivite; TL-Folate; TL-Select DHA; TRONVite; Taron-C DHA; Therapytion Nokmosu Neutral and oily Hair; Therapytion Nokmosu Sensitive and Dry Hair; Thrivite Rx; Time Release B 100 Compound - Tablet; Timed Release B Complex 100 Srt; Timed Release B-complex 100; Timed Release B-complex 50; Timed Release Vita-vim Srt; Tk-nax; Tl-hem 150; Total Living Concepts Formula One - Tab; Totalvit Plus; Tricare Prenatal 2-part Daily Prenatal Vitamin System; Tricare Prenatal DHA One; Tricare Prenatal DHA One Rx Multivitamin; Tricare Prenatal DHA One With Folate; Tricare Prenatal Quick Dissolve; Trinatal GT; Trinatal Rx 1; TriphroCaps; Twin Ultra Liquid Fruit Punch Flavor; Twin Ultra Liquid Grape Flavor; Twin Ultra Liquid Lemon-lime Flavor; Twin Ultra Liquid Orange Flavor; Ultimate OB DHA; UltimateCare ONE NF; Ultra Hr; Usana Megavitamin Tablets - Tab; VIL-Rx; VP-HEME One; VP-Vite Rx; Vc II; Vege 1 Daily Tab; Vege Swiss One Multivitamin W Chel Mins Tab; Vimeral Tab; Vinate AZ; Virt Vite GT; Virt-C DHA; Virt-Caps; Virt-PN; Virt-PN Plus; Virt-Pn; Virt-Vite Plus; Vit B Complex Ctr; Vit-HA Multi Vitamin and Zinc Supplement; Vita B Complex Tab; Vita Balance 2000; Vita Plex Tab; Vita Vim Multivitamins and Minerals Tab; Vita Vim With Beta Carotene-caplet; Vita-B; Vita-B-75 Cap; Vita-Rx Diabetic Vitamin; Vita-vim - Tab; Vita-vim With Beta-carotene - Tab; Vita-worth B-complex Tablets; VitaPhil Aide; Vitaflex Dietary Suplement; Vital Be-100; Vital-D Rx; Vitalife - Capsule; Vitamin B + C Cap; Vitamin B Complex 100 Tab; Vitamin B Complex 50; Vitamin B Complex Suppl; Vitamin B Complex Tab; Vitamin B Complex W C Tab; Vitamin B Compound W C Tab 500mg; Vitamin B Compound W Vit C 250mg Tab; Vitamin B Tablets; Vitaphil 90 DHA; Vitaphil DHA; Vitaplex; Vitasure; Vol-Care Rx; Vol-Tab Rx; Vp-heme Ob; Vp-heme Ob DHA; Vtb Vitamin and Mineral Supplement; Vyo Cylate - Pwr; Vyqua; Wellness Formula; Women's Biomultiple Vitamin and Mineral Supplement; Women's Formula; Xvite; Yakkongmo scalp deep cleansingshampoo; Zatean-Pn; Zatean-Pn Plus; ahoSAN; bioJET; healthy mamaBE WELL ROUNDED BE WELL ROUNDED; vitaMedMD One Rx; vitaMedMD Rx Plus

> <INTERNATIONAL_BRANDS>
Appearex; Biodermatin; Bioepiderm; Meribin; Nail-ex

$$$$
122
  Mrv0541 02261416092D          

  7  6  0  0  0  0            999 V2000
    4.5080    0.4125    0.0000 O   0  0  0  0  0  0  0  0  0  0  0  0
    2.3645    0.0000    0.0000 N   0  3  0  0  0  0  0  0  0  0  0  0
    3.0791    0.4125    0.0000 C   0  0  0  0  0  0  0  0  0  0  0  0
    1.6501   -0.4125    0.0000 C   0  0  0  0  0  0  0  0  0  0  0  0
    1.9520    0.7145    0.0000 C   0  0  0  0  0  0  0  0  0  0  0  0
    2.7770   -0.7145    0.0000 C   0  0  0  0  0  0  0  0  0  0  0  0
    3.7936    0.0000    0.0000 C   0  0  0  0  0  0  0  0  0  0  0  0
  1  7  1  0  0  0  0
  2  3  1  0  0  0  0
  2  4  1  0  0  0  0
  2  5  1  0  0  0  0
  2  6  1  0  0  0  0
  3  7  1  0  0  0  0
M  CHG  1   2   1
M  END
> <DATABASE_ID>
DB00122

> <DATABASE_NAME>
drugbank

> <SMILES>
C[N+](C)(C)CCO

> <INCHI_IDENTIFIER>
InChI=1S/C5H14NO/c1-6(2,3)4-5-7/h7H,4-5H2,1-3H3/q+1

> <INCHI_KEY>
OEYIOHPDSNJKLS-UHFFFAOYSA-N

> <FORMULA>
C5H14NO

> <MOLECULAR_WEIGHT>
104.1708

> <EXACT_MASS>
104.107539075

> <JCHEM_ACCEPTOR_COUNT>
1

> <JCHEM_AVERAGE_POLARIZABILITY>
12.565613058013364

> <JCHEM_BIOAVAILABILITY>
1

> <JCHEM_DONOR_COUNT>
1

> <JCHEM_FORMAL_CHARGE>
1

> <JCHEM_GHOSE_FILTER>
0

> <JCHEM_IUPAC>
(2-hydroxyethyl)trimethylazanium

> <ALOGPS_LOGP>
-3.59

> <JCHEM_LOGP>
-4.662269162805079

> <ALOGPS_LOGS>
-1.59

> <JCHEM_MDDR_LIKE_RULE>
0

> <JCHEM_NUMBER_OF_RINGS>
0

> <JCHEM_PHYSIOLOGICAL_CHARGE>
1

> <JCHEM_PKA_STRONGEST_ACIDIC>
13.968714076810006

> <JCHEM_PKA_STRONGEST_BASIC>
-3.249884462803304

> <JCHEM_POLAR_SURFACE_AREA>
20.23

> <JCHEM_REFRACTIVITY>
42.194

> <JCHEM_ROTATABLE_BOND_COUNT>
2

> <JCHEM_RULE_OF_FIVE>
1

> <ALOGPS_SOLUBILITY>
3.61e+00 g/l

> <JCHEM_TRADITIONAL_IUPAC>
choline

> <JCHEM_VEBER_RULE>
1

> <DRUGBANK_ID>
DB00122

> <SECONDARY_ACCESSION_NUMBERS>
NUTR00020

> <DRUG_GROUPS>
approved; nutraceutical

> <GENERIC_NAME>
Choline

> <SYNONYMS>
Bilineurine; Choline ion; N-trimethylethanolamine; N,N,N-trimethylethanol-ammonium; trimethylethanolamine; Vitamin J

> <PRODUCTS>
24 Multivitamins + Minerals; 50 Plus; Advanced 2000 Capsules; Alertonic; Alkadrenergy Tablets; American Eagle Energizer Plus Vitamin Supplement Drink; American Plus Energy & Vitamin Drink; B 50 Capsules; B Complex 25mg Vitamin Supplement; B Complex 50 Vitamin Cap; B Complex 50+ Caplet; B Compound 50mg Tab; B-100 Caps; B-100 Hi Potency B Vitamins Tab; B-100 Vitamin Supplement; B-50 Complex; B-50 Hi Potency B Vitamins Tab; B-complex; B-complex 100; B-complex 50; B-complex Tab; B-complex With Vitamin C, Biotin, Folic Acid; B-complex-50 Tab; B-plex; B-plus - Tab; B50 Complex; Balanced B 125 Srt; Betacol; Bev 29 Tab; Bev B-150; Bev-lipo-1000; Biosculpt; Body Rox; Body Tropics Plus Tab; C. Vit-min Formula; Cavan Prenatal; Children's Chew Multi & Min Tab; Children's Chewable Multivitamins and Minerals; Children's Chewable Vit and Min Tab; Choline & Inositol Caps; Choline 250 mg; Choline 250mg; Choline Bitartrate 100mg-tab; Choline Bitartrate 500 Mg - Tablet; Choline Caps 350mg; Choline Ctr Srt 400mg; Choline Inositol Methionine; Choline Tab 250mg; Choline and Inositol 250mg/250mg; Cholinex Tab 200mg; Chromium and Vanadium Mineral Supplement; Classic Swiss One 10 Multivitamin and Mineral Tab; Complete Mega B; Complete Multivitamins and Minerals Tablets Timed Release; Complexe B Compose 75; Daily Energy Brand B-complex; Deriton; Derma-force; Doctor's Choice Brand for Men; Dp 2000; Duet DHA Balanced; Essential B Tablets; Extra Once A Day; Fem - Pmt; Folic Acid Plus; For-2; Formula Cm; Formula F L W; Formula Gly; Formula Hh; Formula Lf; Forty Plus Vitamin Supplement; Fusion PM Formula Tab; Gabavale-5; Gabazolamine; Gabazolamine-0.5; Gabazolpidem-5; Gabitidine; Gaboxetine; Gesticare DHA; Glyco Lite Ect; Glyco Plus Ect; Gnc Choline/inositol 250mg Tablets; Grand Master Formula Tab; Harvest Of Values All B Complex Tab; Hi Potency B Complex W Chelated Minerals; Hi Potency B52 B Complex Tab; Hi Potency Multi Tab; Hi Potency Stress B Tension With C; Hoa 1; Hyporyl - Tab; Innersource Tab; Insur-all Vitamin Supplement; Iron, Vit & Min Supp; L Fac Tab; L.C. Supplement; Lip - Fac Formula; Lipall Plus Tab; Lipo Factors Plus B6; Lipo-B-C Tab; Lipotrope Tab; Lipotrope-plus B6 Tab; Lipotropic Adjunct; Lipotropic Ctr; Lipotropics 600 Tab; Lipovite; Liqui B Complex; Liqui B Complex Plus; Liqui Vita; Liquid B Complex 50; Livertal 36; Low Potency B Complex Tab; Magnum-75 Vitamin and Mineral Supplement; Maintain Multiple Vitamin & Minerals; Mangadyn; Master Key Multi Vitamin Multi Mineral Formula 2; Maximum Once A Day; Maxine Vitamin and Mineral Supplement; Mega 13 Multivitamin Formula; Mega Balance; Mega Capsules; Mega Lipotropic Cap; Mega Plex III - Pck; Mega Plex IV - Pck; Mega Vitaminerals; Mega-vim 75 With Beta-carotene - Tablets; Men's 50+; Men's Biomultiple Vitamin and Mineral Supplement; Men's Multi Master Formula; Mini-B Tab; Multi B; Multi II IV Vi Tab; Multi Plex I - Tab; Multi Plex II - Tab; Multi Tabs; Multi Vitamin-mineral Formula; Multi-force for Women Tab; Multi-phyto Capsules; Multicaps; Multipack II; Multiple Vitamins and Minerals Capsules; Multitabs; Multivitamin & Minerals (iron Free); Multivitamin & Multimineral; Multivitamine; Multivitamins and Minerals With Betacarotene Tablets; Multivitamins and Minerals for Men; Multivitamins and Minerals for Women; Multivitamins and Minerals for Young Men; Multivitamins and Minerals for Young Women; Multra Plex; Multra With Iron; NESTABS ABC Prenatal Multi-vitamin/Mineral Supplement with DHA/EPA; NESTABS DHA Prenatal Multi-vitamin/Mineral Supplement with DHA/EPA; NESTABS Prenatal Multi-vitamin/Mineral Supplement; Nata Komplete; Natural Source Spectrum With Beta Carotene; New Chapter's D'adamo 4 Your Type Multiple for Type O; Nrg Plus Liq; Nutri-Tab OB; Nutri-Tab OB plus DHA; Olympian Multi Vit Plus Minerals Tab; Onccor; One A Day Multiple Vit W Minerals; One A Day Tab; Only One - Tablet; Orti B; Palm Spring's PM Form Tab; Phytopure; Phytovim Cap; Pour Ma Santé; Pre-Tabs DHA Prenatal Multi-vitamin/Mineral Supplement with DHA/EPA; Prenatal Formula Tab; Prenatal Vi-min; Prenatal, DHA; Prenatrix; Prenatryl; Pro Hers Vanilla; Pro Pcos Citrus; Proteminal; Red American Eagle Vitamin Supplement Drink; Revit Multi-vitamins and Minerals; Revitalize Multi-vitamin and Mineral Complex; Right Choice P.M. Multi Formula - Caplet; Senophylline; Sentradine; Sentraflox AM-10; Sentralopram AM-10; Sentravil PM-25; Sentrazolam AM; Sentrazolpidem PM-5; Sentroxatine; Spectrum 2 Cap; Stom #2; Strazepam; Stress B & C Caplet; Stress B Capsules With Vitamin C; Stress B With 1000 Mg Vitamin C; Stress B&c Tab; Stress Ctr Srt; Stress Formula B-comp + 500mg Vit C Tab; Stress Formula Multi-B Comp + 500mg Vit C Cap; Stress Formula Vit B With C Complex; Stress Forte Plus Lipotropic Factors; Stress Vitamin B With C Complex Tablets; Stressmates; Super B Compound W 500mg Vit C; Super Daily No 2; Super Multi; Super Stress Capsules; Super Stress Mega B Plus 1000mg Vit C Tab; Super Vita Vim Multivitamins and Minerals; Super Vita-vim With Beta-carotene - Tab; Super-pote Vitamin Supplement; Swiss One; Swiss One Multi Vit & Chel Min Tab; Swiss One Multivitamin and Mineral Caplet; Swiss One Timed Release Tab; Time Release B 100 Compound - Tablet; Timed Release B Complex 100 Srt; Timed Release B-complex 100; Timed Release B-complex 50; Timed Release Vita-vim Srt; Trazamine; Ultr F/b E.S. Mega Lipotropic Fmla W B6bet; Ultra Hr; Usana Megavitamin Tablets - Tab; V-Natal; VITAFOL Gummies; Vasula Tab; Vege 1 Daily Tab; Vege Swiss One Multivitamin W Chel Mins Tab; Vit B Complex Ctr; Vit-HA Multi Vitamin and Zinc Supplement; Vita B Complex Tab; Vita Balance 2000; Vita Plex Tab; Vita Vim Multivitamins and Minerals Tab; Vita Vim With Beta Carotene-caplet; Vita-B; Vita-vim - Tab; Vita-vim With Beta-carotene - Tab; Vita-worth B-complex Tablets; Vitalife - Capsule; Vitamin & Mineral Formula 1 Dietary Supplement; Vitamin B + C Cap; Vitamin B Complex 100 Tab; Vitamin B Complex 50; Vitamin B Complex Suppl; Vitamin B Complex W C Tab; Vitamin B Compound W C Tab 500mg; Vitamin B Compound W Vit C 250mg Tab; Vitamin B Tablets; Vitaphil 90 DHA; Vitaphil DHA; Vitaplex; Wellness Formula; Women's Biomultiple Vitamin and Mineral Supplement; Women's Formula

> <SALTS>
Choline bitartrate

$$$$

  Mrv1909 08212003422D          

 10  9  0  0  0  0            999 V2000
    2.5006   -0.2062    0.0000 O   0  0  0  0  0  0  0  0  0  0  0  0
    0.3572    0.2062    0.0000 C   0  0  0  0  0  0  0  0  0  0  0  0
   -0.3572   -0.2063    0.0000 C   0  0  0  0  0  0  0  0  0  0  0  0
   -1.0717    0.2062    0.0000 C   0  0  0  0  0  0  0  0  0  0  0  0
   -1.7862   -0.2063    0.0000 C   0  0  0  0  0  0  0  0  0  0  0  0
   -2.5006    0.2062    0.0000 N   0  0  0  0  0  0  0  0  0  0  0  0
    1.7862    0.2063    0.0000 C   0  0  0  0  0  0  0  0  0  0  0  0
    1.7862    1.0313    0.0000 O   0  0  0  0  0  0  0  0  0  0  0  0
    1.0717   -0.2063    0.0000 C   0  0  1  0  0  0  0  0  0  0  0  0
    1.0717   -1.0313    0.0000 N   0  0  0  0  0  0  0  0  0  0  0  0
  1  7  1  0  0  0  0
  9  7  1  0  0  0  0
  2  9  1  0  0  0  0
  3  2  1  0  0  0  0
  4  3  1  0  0  0  0
  5  4  1  0  0  0  0
  6  5  1  0  0  0  0
  7  8  2  0  0  0  0
  9 10  1  1  0  0  0
M  END
> <DATABASE_ID>
DB00123

> <DATABASE_NAME>
drugbank

> <SMILES>
NCCCC[C@H](N)C(O)=O

> <INCHI_IDENTIFIER>
InChI=1S/C6H14N2O2/c7-4-2-1-3-5(8)6(9)10/h5H,1-4,7-8H2,(H,9,10)/t5-/m0/s1

> <INCHI_KEY>
KDXKERNSBIXSRK-YFKPBYRVSA-N

> <FORMULA>
C6H14N2O2

> <MOLECULAR_WEIGHT>
146.1876

> <EXACT_MASS>
146.105527702

> <JCHEM_ACCEPTOR_COUNT>
4

> <JCHEM_ATOM_COUNT>
24

> <JCHEM_AVERAGE_NEUTRAL_MICROSPECIES_CHARGE>
0.9958046448055817

> <JCHEM_AVERAGE_POLARIZABILITY>
15.843749178427787

> <JCHEM_BIOAVAILABILITY>
1

> <JCHEM_DONOR_COUNT>
3

> <JCHEM_FORMAL_CHARGE>
0

> <JCHEM_GHOSE_FILTER>
0

> <JCHEM_IUPAC>
(2S)-2,6-diaminohexanoic acid

> <ALOGPS_LOGP>
-3.76

> <JCHEM_LOGP>
-3.2145347205442243

> <ALOGPS_LOGS>
-0.14

> <JCHEM_MDDR_LIKE_RULE>
0

> <JCHEM_NEUTRAL_CHARGE>
1

> <JCHEM_NUMBER_OF_RINGS>
0

> <JCHEM_PHYSIOLOGICAL_CHARGE>
1

> <JCHEM_PKA_STRONGEST_ACIDIC>
2.7382862451337

> <JCHEM_PKA_STRONGEST_BASIC>
10.288061623041543

> <JCHEM_POLAR_SURFACE_AREA>
89.34

> <JCHEM_REFRACTIVITY>
37.8095

> <JCHEM_ROTATABLE_BOND_COUNT>
5

> <JCHEM_RULE_OF_FIVE>
1

> <ALOGPS_SOLUBILITY>
1.05e+02 g/l

> <JCHEM_TRADITIONAL_IUPAC>
unii-71TH42O2CQ

> <JCHEM_VEBER_RULE>
0

> <DRUGBANK_ID>
DB00123

> <SECONDARY_ACCESSION_NUMBERS>
NUTR00037; DB11101

> <DRUG_GROUPS>
approved; nutraceutical

> <GENERIC_NAME>
L-Lysine

> <SYNONYMS>
(S)-2,6-diaminohexanoic acid; (S)-lysine; (S)-α,ε-diaminocaproic acid; 6-ammonio-L-norleucine; L-2,6-Diaminocaproic acid; L-lys; L-Lysin; LYS; Lysina; Lysine; Lysine acid; Lysinum

> <PRODUCTS>
2.5% Travasol Amino Acid Injection With Electrolytes In 10% Dextrose; 2.5% Travasol Amino Acid Injection With Electrolytes In 10% Dextrose Clinimix; 2.5% Travasol Amino Acid Injection Without Electrolytes In 10% Dextrose Quickmix; 2.5%travasol Amino Acid InJ.W.eleC.W.25%dex; 2.75% Travas. Amino Acid InJ.W.elecw.25%dex; 2.75% Travasol Amino Acid Injection With Electrolytes In 25% Dextrose Quickmix; 2.75% Travasol Amino Acid Injection With Electrolytes In 5% Dextrose Quickmix; 2.75%travasol Amino Acid InJ.W.eleC.W.5%dex.; 20% Prosol; 4.25% Amino Acid Injection Without Electrolytes In 20% Dextrose Quickmix; 4.25% Travasol Amino Acid Injection With Electrolytes In 10% Dextrose; 4.25% Travasol Amino Acid Injection With Electrolytes In 20% Dextrose; 4.25% Travasol Amino Acid Injection With Electrolytes In 20% Dextrose Quickmix; 4.25% Travasol Amino Acid Injection With Electrolytes In 25% Dextrose; 4.25% Travasol Amino Acid Injection With Electrolytes In 5% Dextrose Quickmix; 4.25% Travasol Amino Acid Injection Without Electrlytes In 10% Dextrose; 4.25% Travasol Amino Acid Injection Without Electrolytes In 20% Dextrose; 4.25% Travasol Amino Acid Injection Without Electrolytes In 25% Dextrose; 4.25% Travasol Amino Acid Without Electrolytes In 5% Dextrose Quickmix; 4.25%trav. Amino Acid InJ.W.O.elect.5%dext.; 4.25%travasol Amino Acid InJ.W.elecw.5%dex.; 5% Travasol Amino Acid Injection With Electrolytes In 20% Dextrose; 5% Travasol Amino Acid Injection Without Electrolytes In 20% Dextrose; 5% Travasol Amino Acid Injection Without Electrolytes In 25% Dextrose; 8.5% Freamine III; Aminosyn; Aminosyn 10% W Electrolytes; Aminosyn 3.5% M; Aminosyn 5%; Aminosyn 7%; Aminosyn 8.5%; Aminosyn 8.5% Injection With Electrolytes; Aminosyn HF; Aminosyn II; Aminosyn II 10% With Electrolytes; Aminosyn II 5% Inj; Aminosyn II 7% Injection; Aminosyn II 7% M In 10% Dextrose(dual Chamber); Aminosyn II 7% With 10% Dextrose; Aminosyn II 7% With 50% Dextrose; Aminosyn II 8.5% Injection; Aminosyn II 8.5% M In 20% Dextrose (dual Chamber); Aminosyn II 8.5% With 50% Dextrose; Aminosyn II In Dextrose Injection; Aminosyn II and Dextrose; Aminosyn II in Dextrose; Aminosyn II with Electrolytes; Aminosyn II with Electrolytes in Dextrose with Calcium; Aminosyn RF; Aminosyn RF Injection; Aminosyn Sulfite Free; Aminosyn-PF; Aminosyn-PF 10%; Aminosyn-PF 7%; Clinimix; Clinimix 2.5% Travasol Aa Without Electrolytes In 10% Dextrose Injec; Clinimix E; Clinisol; Effervescent Potassium Chloride; FreAmine HBC; FreAmine III; HepatAmine; Hepatasol; Kabiven; NephrAmine; Nephramine Liq IV; Novamine; Nutrineal Pd4; Olimel 3.3% E; Olimel 4.4%; Olimel 4.4% E; Olimel 5.7%; Olimel 5.7% E; Olimel 7.6%; Olimel 7.6% E; Perikabiven; Periolimel 2.5% E; Plenamine; Premasol - sulfite-free (Amino Acid); Primene; Primene 10%; Primene 10%-liq IV; ProSol; ProcalAmine; Quick Mix 2.5% Travasol Aa With Electrolytes With 25% Dextrose Injec; RenAmin; Renamin (amino Acids) Injection; Smofkabiven; Smofkabiven Electrolyte Free; Smofkabiven Extra Nitrogen; Smofkabiven Extra Nitrogen Electrolyte Free; Smofkabiven Peripheral; Synthamin; Travasol; Travasol Amino Acid Inj 5.5%; Travasol Amino Acid Inj 8.5%; Travasol E; Travasol Inj Without Electrolytes 5.5%; Travasol Inj Without Electrolytes 8.5%; TrophAmine; Vamin 18 Electrolyte-free; Vamin N; Xyzmune

> <SALTS>
L-Lysine acetate; L-Lysine hydrochloride; L-Lysine monohydrate

$$$$

  Mrv1909 10301919042D          

 12 11  0  0  0  0            999 V2000
    2.1434    1.0312    0.0000 O   0  0  0  0  0  0  0  0  0  0  0  0
    2.1434    0.2062    0.0000 C   0  0  0  0  0  0  0  0  0  0  0  0
    2.8579   -0.2062    0.0000 O   0  0  0  0  0  0  0  0  0  0  0  0
    1.4290   -0.2062    0.0000 C   0  0  1  0  0  0  0  0  0  0  0  0
    1.4290   -1.0312    0.0000 N   0  0  0  0  0  0  0  0  0  0  0  0
    0.7145    0.2062    0.0000 C   0  0  0  0  0  0  0  0  0  0  0  0
    0.0000   -0.2062    0.0000 C   0  0  0  0  0  0  0  0  0  0  0  0
   -0.7143    0.2062    0.0000 C   0  0  0  0  0  0  0  0  0  0  0  0
   -1.4288   -0.2062    0.0000 N   0  0  0  0  0  0  0  0  0  0  0  0
   -2.1433    0.2062    0.0000 C   0  0  0  0  0  0  0  0  0  0  0  0
   -2.1433    1.0312    0.0000 N   0  0  0  0  0  0  0  0  0  0  0  0
   -2.8579   -0.2062    0.0000 N   0  0  0  0  0  0  0  0  0  0  0  0
  2  1  2  0  0  0  0
  3  2  1  0  0  0  0
  4  2  1  0  0  0  0
  4  5  1  1  0  0  0
  6  4  1  0  0  0  0
  7  6  1  0  0  0  0
  9  8  1  0  0  0  0
  7  8  1  0  0  0  0
 10  9  1  0  0  0  0
 11 10  2  0  0  0  0
 12 10  1  0  0  0  0
M  END
> <DATABASE_ID>
DB00125

> <DATABASE_NAME>
drugbank

> <SMILES>
N[C@@H](CCCNC(N)=N)C(O)=O

> <INCHI_IDENTIFIER>
InChI=1S/C6H14N4O2/c7-4(5(11)12)2-1-3-10-6(8)9/h4H,1-3,7H2,(H,11,12)(H4,8,9,10)/t4-/m0/s1

> <INCHI_KEY>
ODKSFYDXXFIFQN-BYPYZUCNSA-N

> <FORMULA>
C6H14N4O2

> <MOLECULAR_WEIGHT>
174.201

> <EXACT_MASS>
174.111675712

> <JCHEM_ACCEPTOR_COUNT>
6

> <JCHEM_ATOM_COUNT>
26

> <JCHEM_AVERAGE_POLARIZABILITY>
17.798401776145056

> <JCHEM_BIOAVAILABILITY>
1

> <JCHEM_DONOR_COUNT>
5

> <JCHEM_FORMAL_CHARGE>
0

> <JCHEM_GHOSE_FILTER>
0

> <JCHEM_IUPAC>
(2S)-2-amino-5-carbamimidamidopentanoic acid

> <ALOGPS_LOGP>
-3.49

> <JCHEM_LOGP>
-3.1559373774200568

> <ALOGPS_LOGS>
-1.88

> <JCHEM_MDDR_LIKE_RULE>
0

> <JCHEM_NUMBER_OF_RINGS>
0

> <JCHEM_PHYSIOLOGICAL_CHARGE>
1

> <JCHEM_PKA_STRONGEST_ACIDIC>
2.4118378885304885

> <JCHEM_PKA_STRONGEST_BASIC>
12.41100429474531

> <JCHEM_POLAR_SURFACE_AREA>
125.21999999999998

> <JCHEM_REFRACTIVITY>
53.9231

> <JCHEM_ROTATABLE_BOND_COUNT>
5

> <JCHEM_RULE_OF_FIVE>
1

> <ALOGPS_SOLUBILITY>
2.28e+00 g/l

> <JCHEM_TRADITIONAL_IUPAC>
tigecycline

> <JCHEM_VEBER_RULE>
0

> <DRUGBANK_ID>
DB00125

> <SECONDARY_ACCESSION_NUMBERS>
NUTR00014

> <DRUG_GROUPS>
investigational; nutraceutical

> <GENERIC_NAME>
Arginine

> <SYNONYMS>
(2S)-2-amino-5-(carbamimidamido)pentanoic acid; (2S)-2-amino-5-guanidinopentanoic acid; (S)-2-amino-5-guanidinopentanoic acid; (S)-2-Amino-5-guanidinovaleric acid; Arg; Arginina; Arginine; L-(+)-Arginine; L-Arg; L-Arginin; L-arginine; R

> <PRODUCTS>
2.5% Travasol Amino Acid Injection With Electrolytes In 10% Dextrose; 2.5% Travasol Amino Acid Injection With Electrolytes In 10% Dextrose Clinimix; 2.5% Travasol Amino Acid Injection Without Electrolytes In 10% Dextrose Quickmix; 2.5%travasol Amino Acid InJ.W.eleC.W.25%dex; 2.75% Travas. Amino Acid InJ.W.elecw.25%dex; 2.75% Travasol Amino Acid Injection With Electrolytes In 25% Dextrose Quickmix; 2.75% Travasol Amino Acid Injection With Electrolytes In 5% Dextrose Quickmix; 2.75%travasol Amino Acid InJ.W.eleC.W.5%dex.; 20% Prosol; 4.25% Amino Acid Injection Without Electrolytes In 20% Dextrose Quickmix; 4.25% Travasol Amino Acid Injection With Electrolytes In 10% Dextrose; 4.25% Travasol Amino Acid Injection With Electrolytes In 20% Dextrose; 4.25% Travasol Amino Acid Injection With Electrolytes In 20% Dextrose Quickmix; 4.25% Travasol Amino Acid Injection With Electrolytes In 25% Dextrose; 4.25% Travasol Amino Acid Injection With Electrolytes In 5% Dextrose Quickmix; 4.25% Travasol Amino Acid Injection Without Electrlytes In 10% Dextrose; 4.25% Travasol Amino Acid Injection Without Electrolytes In 20% Dextrose; 4.25% Travasol Amino Acid Injection Without Electrolytes In 25% Dextrose; 4.25% Travasol Amino Acid Without Electrolytes In 5% Dextrose Quickmix; 4.25%trav. Amino Acid InJ.W.O.elect.5%dext.; 4.25%travasol Amino Acid InJ.W.elecw.5%dex.; 5% Travasol Amino Acid Injection With Electrolytes In 20% Dextrose; 5% Travasol Amino Acid Injection Without Electrolytes In 20% Dextrose; 5% Travasol Amino Acid Injection Without Electrolytes In 25% Dextrose; 8.5% Freamine III; Aminosyn; Aminosyn 10% W Electrolytes; Aminosyn 3.5% M; Aminosyn 5%; Aminosyn 7%; Aminosyn 8.5%; Aminosyn 8.5% Injection With Electrolytes; Aminosyn HF; Aminosyn II; Aminosyn II 10% With Electrolytes; Aminosyn II 5% Inj; Aminosyn II 7% Injection; Aminosyn II 7% M In 10% Dextrose(dual Chamber); Aminosyn II 7% With 10% Dextrose; Aminosyn II 7% With 50% Dextrose; Aminosyn II 8.5% Injection; Aminosyn II 8.5% M In 20% Dextrose (dual Chamber); Aminosyn II 8.5% With 50% Dextrose; Aminosyn II In Dextrose Injection; Aminosyn II and Dextrose; Aminosyn II in Dextrose; Aminosyn II with Electrolytes; Aminosyn II with Electrolytes in Dextrose with Calcium; Aminosyn RF; Aminosyn RF Injection; Aminosyn Sulfite Free; Aminosyn-PF; Aminosyn-PF 10%; Aminosyn-PF 7%; Arginine; Cardiotek-RX; Clinimix; Clinimix 2.5% Travasol Aa Without Electrolytes In 10% Dextrose Injec; Clinimix E; Clinisol; FreAmine HBC; FreAmine III; HepatAmine; Hepatasol; Hypertenevide-12.5; Hypertenipine; Hypertensolol; Kabiven; L-arginine Hydrochloride Injection; Lytensopril; Lytensopril-90; Novamine; Nutrineal Pd4; Olimel 3.3% E; Olimel 4.4%; Olimel 4.4% E; Olimel 5.7%; Olimel 5.7% E; Olimel 7.6%; Olimel 7.6% E; Perikabiven; Periolimel 2.5% E; Plenamine; Premasol - sulfite-free (Amino Acid); Primene; Primene 10%; Primene 10%-liq IV; ProSol; ProcalAmine; Quick Mix 2.5% Travasol Aa With Electrolytes With 25% Dextrose Injec; R-Gene; RenAmin; Renamin (amino Acids) Injection; Rimantalist; Smofkabiven; Smofkabiven Electrolyte Free; Smofkabiven Extra Nitrogen; Smofkabiven Extra Nitrogen Electrolyte Free; Smofkabiven Peripheral; Synthamin; Travasol; Travasol Amino Acid Inj 5.5%; Travasol Amino Acid Inj 8.5%; Travasol E; Travasol Inj Without Electrolytes 5.5%; Travasol Inj Without Electrolytes 8.5%; TrophAmine; Vamin 18 Electrolyte-free; Vamin N; tensioSAN

> <INTERNATIONAL_BRANDS>
R-Gene 10

> <SALTS>
Arginine hydrochloride

$$$$

  Mrv0541 02231214272D          

 13 13  0  0  1  0            999 V2000
    0.0000    0.0000    0.0000 O   0  0  0  0  0  0  0  0  0  0  0  0
   -0.8974   -1.9370    0.0000 O   0  0  0  0  0  0  0  0  0  0  0  0
    0.8974   -1.9370    0.0000 O   0  0  0  0  0  0  0  0  0  0  0  0
    0.6674   -0.4849    0.0000 C   0  0  0  0  0  0  0  0  0  0  0  0
    1.4521   -0.2300    0.0000 O   0  0  0  0  0  0  0  0  0  0  0  0
    0.4125   -1.2695    0.0000 C   0  0  0  0  0  0  0  0  0  0  0  0
   -0.4125   -1.2695    0.0000 C   0  0  0  0  0  0  0  0  0  0  0  0
   -2.8109   -0.0724    0.0000 O   0  0  0  0  0  0  0  0  0  0  0  0
   -2.0964   -0.4849    0.0000 C   0  0  0  0  0  0  0  0  0  0  0  0
   -1.3819   -0.0724    0.0000 C   0  0  2  0  0  0  0  0  0  0  0  0
   -1.3819    0.7526    0.0000 O   0  0  0  0  0  0  0  0  0  0  0  0
   -0.6674   -0.4849    0.0000 C   0  0  1  0  0  0  0  0  0  0  0  0
   -1.2508   -1.0683    0.0000 H   0  0  0  0  0  0  0  0  0  0  0  0
  1  4  1  0  0  0  0
 12  1  1  0  0  0  0
  7  2  1  0  0  0  0
  6  3  1  0  0  0  0
  4  5  2  0  0  0  0
  4  6  1  0  0  0  0
  6  7  2  0  0  0  0
 12  7  1  0  0  0  0
  8  9  1  0  0  0  0
  9 10  1  0  0  0  0
 12 10  1  0  0  0  0
 10 11  1  6  0  0  0
 12 13  1  6  0  0  0
M  END
> <DATABASE_ID>
DB00126

> <DATABASE_NAME>
drugbank

> <SMILES>
[H][C@@]1(OC(=O)C(O)=C1O)[C@@H](O)CO

> <INCHI_IDENTIFIER>
InChI=1S/C6H8O6/c7-1-2(8)5-3(9)4(10)6(11)12-5/h2,5,7-10H,1H2/t2-,5+/m0/s1

> <INCHI_KEY>
CIWBSHSKHKDKBQ-JLAZNSOCSA-N

> <FORMULA>
C6H8O6

> <MOLECULAR_WEIGHT>
176.1241

> <EXACT_MASS>
176.032087988

> <JCHEM_ACCEPTOR_COUNT>
5

> <JCHEM_AVERAGE_POLARIZABILITY>
14.93252509217066

> <JCHEM_BIOAVAILABILITY>
1

> <JCHEM_DONOR_COUNT>
4

> <JCHEM_FORMAL_CHARGE>
0

> <JCHEM_GHOSE_FILTER>
0

> <JCHEM_IUPAC>
(5R)-5-[(1S)-1,2-dihydroxyethyl]-3,4-dihydroxy-2,5-dihydrofuran-2-one

> <ALOGPS_LOGP>
-1.58

> <JCHEM_LOGP>
-1.9135588756666668

> <ALOGPS_LOGS>
0.14

> <JCHEM_MDDR_LIKE_RULE>
0

> <JCHEM_NUMBER_OF_RINGS>
1

> <JCHEM_PHYSIOLOGICAL_CHARGE>
-1

> <JCHEM_PKA>
11.19770144834119

> <JCHEM_PKA_STRONGEST_ACIDIC>
4.359917442787388

> <JCHEM_PKA_STRONGEST_BASIC>
-2.979728932431362

> <JCHEM_POLAR_SURFACE_AREA>
107.22

> <JCHEM_REFRACTIVITY>
37.0321

> <JCHEM_ROTATABLE_BOND_COUNT>
2

> <JCHEM_RULE_OF_FIVE>
1

> <ALOGPS_SOLUBILITY>
2.45e+02 g/l

> <JCHEM_TRADITIONAL_IUPAC>
vitamin C

> <JCHEM_VEBER_RULE>
0

> <DRUGBANK_ID>
DB00126

> <SECONDARY_ACCESSION_NUMBERS>
NUTR00001; APRD00084; EXPT00568; DB11167; DB11316; DB11170; DB09541; DB11317

> <DRUG_GROUPS>
approved; nutraceutical

> <GENERIC_NAME>
Ascorbic acid

> <SYNONYMS>
acide ascorbique; ácido ascórbico; Acidum ascorbicum; acidum ascorbinicum; Ascorbate; Ascorbic acid; Ascorbinsäure; L-(+)-ascorbic acid; L-Ascorbate; L-Ascorbic Acid; Vitamin C; Vitamina C

> <PRODUCTS>
24 Multivitamins + Minerals; 50 Plus; 50 Plus Multiple Vitamins & Minerals; A & C Powder; AREDS2 Formula; Acerotab; Aces Formula/formule A A S; Acetabolan III Vitamin and Mineral Supplement; Acetabolan-II Vitamin and Mineral Supplement; Acetaminophen, Ascorbic acid, Chlorpheniramine Maleate; Acti-scorb 1000 Caplet 1000mg; Acti-scorb 500 Caplet 500mg; Active FE; Active OB; Adc Comprimes; Adrenergy Tablets; Adult Formula 50+; Adult Infuvite Multiple Vitamins; Advanced AM PM; Advanced B & T Formula; Alkadrenergy Tablets; All Natural Source Juicy Orange Vitamin C; Allbee C 800 Tab; Allbee With C 550 Cap; Allbee With Vitamin C Cap; Am Caps; Amd; Amerix Multivitamin; Amerix Vitamin C; Anaplex Tab; Animal Shaped Chew Vit C Tab 250mg; Animal Shapes; Animal Shapes w/Iron Chewtabs; Antiflu Kids; Antlerviron; Armax; Aromacura Shower Filter; Aronamin Gold; Ascor; Ascor L 500; Ascorbex 500 Tab; Ascorbic 500 Tab 500mg; Ascorbic Acid; Ascorbic Acid 500mg; Ascorbic Acid Cap 500mg; Ascorbic Acid Inj 500mg/ml; Ascorbic Acid Injection USP 500 mg/ml; Ascorbic Acid Powder; Ascorbic Acid Tab 1000mg; Ascorbic Acid Tab 100mg; Ascorbic Acid Tab 250mg; Ascorbic Acid Tab 500mg; Ascorbic Acid Tab 500mg USP W Non-med Cherry; Avon Nutrivance Vitamin E Plus; Avon Vitadvance Multi-kids Complete; AzesChew; Azesco; B & J Formula Dietary Supplement; B C Antistress Cap; B Complex 500 Tab; B Complex Plus C 300mg Tab; B Complex W C Forte Cap; B Complex W C and B12 Inj; B Complex W Vit C W Non-med Yeast&liver Tab; B Complex W Vitamin C Fortis Cap; B Complex With C 300mg; B Complex With C 300mg Tab; B Complex With C 550mg; B Plus C 300 mg; B Plus C 300mg Timed Release; B Stress C + Iron & Vite; B Totum 500; B Virol; B With C 500 Cap; B-2 100mg With C 20mg; B-complex With Vitamin C, Biotin, Folic Acid; B-plex; B-plus - Tab; BABOR Baborganic Biological Enzyme Cleanser; Bacmin; Bal-Care DHA; Bal-Care DHA Essential; Balance Ace - Cap; Balanced B-complex Vit + Vit C&e Tab; Balanced C Complex; Bear Essentials; Beminal 500 Tab; Beminal W C Fortis Inj; Beminal With C Fortis Cap; Beminal With C Fortis Pws; Beta C & E With Selenium; Beta C and E Tab; Beta-CE Cap; Beta-carotene 10,000 Iu With Vitamins C & E; Betac Ascorbic Acid Injection, USP 500mg/ml; Betacept Special Formula Vitamins Cap; Betafant Tab; Bev C 1725 Tab 1000mg; Bio C 300 Tab; Bio C 600 Tab; Bio Efferlife Vitamin C 1000mg; Bio Flavono C Tab 100mg; Bio-cee Dietary Supplement; BioFerr 90; Bioflavonoids With Rose Hips C Nu Life; Biovim Tab; Biovita; Bodysmarts With Vitamins A, C and E; Bseltzer; Buffered Vitamin C Plus Magnesium; Buffered Vitamin C Powder With Ca Mg and K; Buffered Vitamin C Pwr W Cal-mag-potassium; Buffered Vitamin C Tab 500mg; C 1000; C 106 Tab; C 3000; C 350; C 500 Complete Tab 500mg; C 500 Mg Chewable; C 500mg Ascorbic Acid; C Forte; C Rola 300 Waf; C Rola Tab 100mg; C Vite 100 Tab 100mg; C Vite 150 Tab 150mg; C-1000 Tab 1000mg; C-1000 Tr Srt 1000mg; C-500 Caplet; C-500 Liq 50mg/ml; C-B Complex; C-Nate DHA; C-apnto-B6 Vitamins W Magnesium Tab; C-curity-vitamin C Cap; C-force; C-plus - Tab; C-rolla-250 Tab 250mg Chewable; C. Vit-min Formula; C.A.G. Tab; C.E.b12 Complex Pwr; C.H.V. Formula; C1000 W Flavanoids Tab; C500 Tab; Cal & Mag Hvp Chel Plus C Potass & Zinc Tab; Cal Mag Drink With Vitamin C; Cal-mag Complete With Zinc, C and D; Cal-mag Vitamin C and Zinc Tab; Calcium Ascorbate Ctr Srt 450mg; Calcium Complex High Grade; Calcium Magnesium Avec Vitamine C; Calcium PNV; Calcium With Mg Zn Mn Cu CR Si and Vit. C & D; Calcium With Vitamins C and D Tab; Calmax; Calplus; Carbassist Tablets; Carbaway; Carti-aide Tab; Cataplex A-C Tab; Cataplex C Tab 5.7mg; Cavan Alpha; Cavan Folate DHA; Cavan Folate OB; Cavan Prenatal; Cavan-EC SOD DHA; Cda-21 Vitamins With Non-medicinal Probiotic Complex; Ce Vi Sol Dps; Cedevita Plus Vitamin Supplement; Cedevita Sugar-free Vitamin Supplement; Cell-wise; Cell-wise Natural Source; Cellular Formula; Central-vite 18 Essential; Century Complete; Chelated Cal-mag(2:1)with Zn Vit.c and D; Chelated Cal/mag/zn With Vitamins; Chew C Berry Tablets - 125mg; Chew.multiple Vits.with Extra C for Children; Chewable Acerola C 500mg; Chewable Adult Multivitamins With Minerals; Chewable C Tab 100mg; Chewable C Vitamin 300 Mg With Acerola; Chewable Children's Complete Multivitamins With Essential Minerals; Chewable Multiple Vit Plus Iron for Children; Chewable Multiple Vitamins Plus Extra C; Chewable Multiple Vitamins Plus Iron Tab; Chewable Multiple Vitamins Tab; Chewable Vit C 100mg; Chewable Vitamin C 100mg; Chewable Vitamin C 100mg - Tab; Chewable Vitamin C 250 mg; Chewable Vitamin C 250mg; Chewable Vitamin C 250mg With Orange Juice; Chewable Vitamin C 500 Mg Tablet With Orange Juice; Chewable Vitamin C 500 mg; Chewable Vitamin C 500mg; Chewable Vitamin C 500mg Tab; Chewable Vitamin C 500mg Tablets; Chewable Vitamin C Tab 1000mg; Chewable Vitamin C Tab. 500 Mg Grape Flavour; Chewable Vitamin C Tablet 500mg; Chewable Vitamin C Wafers 500mg; Chewable Wafers Vitamin C 500 Mg - Tablet; Children Choice Multivit Chewable Tab; Children Choice Multivitamin W Iron Chew Tab; Children Pediatric Vitamins Drops; Children Vitamin Drops; Children's Chew Multi & Min Tab; Children's Chewable Multi Vit W Iron; Children's Chewable Multi Vitamins; Children's Chewable Multi Vitamins With Iron Tablets; Children's Chewable Multi-vitamin; Children's Chewable Multi-vitamin Complete With Minerals; Children's Chewable Multivitamin Complete With Minerals; Children's Chewable Multivitamin and Multimineral; Children's Chewable Multivitamins With Minerals; Children's Chewable Multivitamins and Minerals; Children's Chewable Tab; Children's Chewable Vit and Min Tab; Children's Chewable With Iron; Children's Multivitamins; Children's Multivitamins With Iron; Children's Vitamins Chewable; Children's Vitamins W Iron Chewable; Childrens Chew Multi Vitamin Tab; Childrens Chewab Vitamin W Chel Minerals; Childrens Chewable Multiple Vitamins; Childrens Chewable Multiple Vitamins Plus Fe; Childrens Chewable Multiple Vitamins W.iron; Childrens Chewable Multivitamins; Childrens Chewable Multivitamins W Iron; Childrens Chewable Tab; Childrens Chewable Vitamin Tab; Childrens Chewable Vitamins; Childrens Chewable Vitamins W Iron; Childrens Multiple Vit and Min Chew Tab; Choice OB DHA; Chromagen; Cilobana Cpa Tab; CitraNatal 90 DHA; CitraNatal Assure; CitraNatal B-Calm; CitraNatal Bloom; CitraNatal Bloom DHA; CitraNatal DHA; CitraNatal Essence; CitraNatal Rx; Citranatal B-calm; Citric C Tab; Citron Chaud Cumberland Pws; Citron Chaud DM Cumberland Pws; Citron Chaud DM Option + Pws; Citron Chaud Extra Fort; Clairfore; Classic Swiss One 10 Multivitamin and Mineral Tab; Cmp Plex; Coen.q10w.vit.c and E Beta-car.se Cu Zn Mn; Cold & Flu; Cold and Sinus; Collag-EN; Complete Multivitamins and Minerals Tablets Timed Release; Complete Natal DHA; Complete-RF Prenatal; CompleteNate Chewable; Comprime De Vitamine C 250mg; Concept DHA; Concept OB; Contac Extend-C Sustained Release Capsules; Corvita; Corvita 150; Corvite; Corvite Free; Cran C; Croq-vit Pour Enfants; Cyroplex; Cyruta Tab; D Pantothenic 500mg With 100mg C; DaVITE; Daily Energy Brand Vitamin & Mineral Drink Mix; Daily Support C; Daily-Vite; Dalivit; Db-7 Dietary Supplement; Derma-force; Dermamed Nutrition for troubled skin; Dexifol; Dexivite; Dia-vite; Dialyvite; Dialyvite 3000; Dialyvite 5000; Dialyvite Supreme D; Dialyvite with Zinc; Diaplex; Dinosaurs Im-rap; Docosavit; Doctor's Choice Brand for Men; Dothelle DHA; Dr Cellapy SR Premium; Duet DHA; Duet DHA 400; Duet DHA 400 ec; Duet DHA Balanced; DuetDHA Balanced; DuetDHA Complete; Duo Cvp Cap 200mg; Dynam Ampoule Et Tablet; Dyzbac; E 400iu W Selenium 100mcg; E.V.C. Vitamins Tab; EC + Complex; Earthpals Children's Chewables Multi-vitamin & Mineral Tablets; Eden With Vitamins A, C, and E; Edge OB; Efferlife Calcium 500mg + Vitamin D3 440 Iu + Vitamin C 125mg; Efferlife Multivitamins and Minerals; Effervescent Vit C 1000mg; Effervescent Vitamin C Powder With Ca and mg; Eky Efferlife Vitamin C 1000mg With Zinc; Elite OB Prenatal Multivitamin; Emuol V; Enrich Core Pack - Children Vitamin and Mineral Supplement; Envirocomplex; Enviroflex - Tab; Enzogenol; Escavite; Escavite D; Escavite Lq; Essential Vitamins and Minerals; Ester C 1000 mg; Ester-C Tablet; Evc - Liq; Evc Liquid Vitamins A,c,b6 With Beta Caro&zn; Everyday Multiple Vitamins; Everyday Multiple Vitamins With Iron; Exitox Tab 200mg; Extra 11; Extra C 1000; Extra Once A Day; Extra P.N. Vitamin-mineral Drink Mix; Extra Strength Pharmacitron; Extra-Virt Plus DHA; Extreme C; FE C Tab; FE C Tab Plus; FeRiva; FeRiva 21 7; FeRiva FA; FeRivaFA; Fem - Control; Fem - Pmt; Fem - Protect; Feminex 300 Tab; Feminique W Iron and Calcium Tab; Femitab Tab; Feonyx; Fero Grad 500; Ferotrin; Ferra Naka Plus Vitamins; FerraPlus 90; Ferralet 90; Ferrex 150 Plus; Ferrex 28; FerroGels Forte; Fib-C Melts; Fizz Multivitamins for Kids W C Loz; Floravit - Syr; Floriva; Floriva Plus; Focalgin 90 DHA; Focalgin CA; Focalgin DSS; Folcal DHA; Folet DHA; Folet One; Folic Acid & Vitamin C; Folic Acid 1mg With C 20mg; Folic Acid 1mg With Vitamin C; Folic Acid With Vitamin B12 and Vitamin C; Folika-MG; Folika-NC; Folika-T; Folika-V; Folinex; Folivane-F; Folivane-OB; Folivane-PRx DHA; Folivane-Plus with Ascorbic Acid Precursors; Foltabs Prenatal; Foltabs Prenatal Plus DHA; Folvite-FE; Food Nutrition Inc. Men's Vitamin and Mineral Supplement; For Kids Only Chewable Multivitamins; For Men; Formula # 2 Pwr 15mg/g; Formula 14 Dietary Supplement; Formula A.R.-th Dietary Supplement; Formula B; Formula C-500 Caplet; Formula CF; Formula Cn; Formula Cp Cap; Formula Csp With Vitamins A C and Zinc Loz; Formula Cw; Formula Cw-caplet; Formula F L W; Formula F.E.S. Vitamins Tab; Formula Fm Vitamins & Minerals Tab; Formula Gly; Formula Hh; Formula Im-vitamins and Minerals Tab; Formula Imgrd - Tab; Formula Inf; Formula Lf; Formula No. 2 Plus K Liq; Formula O; Formula O.C.; Formula Osg; Formula R Tab; Formula Tc Vitamin C Tab 200mg USP; Formula Vitamin C Tab 15mg; Formule 7561 Caps; Formule No 204 Profil Tab; Fortamines 10 Capsules; Fortamines-10 Comprimes; Fortifi-plus; Fortistress Tab; Forty Plus Vitamin Supplement; Fruity Bita C Tablets 125mg; Fusion Activator Formula Tab; Garfield Chewable Multivitamins Tab; Garfield Chewable Multivits Plus Iron Tab; Gemvites Jr Tab Chewable; Genicin Vita-Q; Genicin Vita-S; Geri-plus Cap; Germacil; Gestamine Comprimes; Gesticare DHA; Ginsamin Energy; Glyco Lite Ect; Glyco Plus Ect; Glyco-aide Tab; Gnc C-complex Formula 500mg; Gnc Chewable Citrus Free Vit.c Tabs 500mg; Gnc Timed Release Vitamin C 1500mg Tablets; Gnc Timed Release Vitamin C Tablets 500mg; Golf Vitamin and Mineral Supplement; Good Health Formula; Good Night/pm Formula Tab; Grand Master Formula Tab; Great Day/am Formula Tab; Grippalin & C Tab; Guardyn Tab; Gynedyn Tab; HICELl; Hemarexin Tab; Hematogen; Hematogen FA; Hematogen Forte; Hi Potency B52 B Complex Tab; Hi Potency Multi Tab; Hi Potency Stress B Tension With C; Hicell; High Potency Multivitamins & Minerals Caplets; High Potency Vitamin B Complex + C Tab; Hill.vite; Hoa 1; Homosistrol Capsules; Homosistrox Capsules; Hot Lemon Cold & Sore Throat Night; Hot Lemon Cold and Flu Relief Extra Strength; Hot Lemon Cold and Flu Relief Regular Strength; Hot Lemon Cold and Flu Relief Super Strength; Hot Lemon Extra Strength; Hot Lemon Extra Strength Cold & Congestion; Hot Lemon Extra Strength Cold & Sinus Night; Hot Lemon Regular - Pwr; Hot Lemon Relief - Extra Strength; Hot Lemon Relief Pck-pws; Hot Lemon Relief Powder; Hot Lemon Relief Powder Extra Strength; Hot Lemon Relief Powder Regular Strength; Hot Lemon Relief Regular Strength; Hot Lemon Relief for Cold Symptoms Ext Str; Hot Lemon Relief for Cold Symptoms Pws; Hot Lemon Relief for Symptoms Of Cold and Flu; Hot Lemon Relief for Symptoms Of Cold and Flu Extra Strength; Hot Lemon Relief for Symptoms Of Cold and Flu Forte; Hot Lemon Relief for Symptoms Of Cold and Flu Regular Strength; Hot Lemon Relief for Symptoms Of Cough and Cold; Hot Lemon Relief-extra Strength Pck-pws; Hot Lemon Ultra Strength Total Flu Night; Hot Lemon for Colds Powder; Hvp Chelated Cal/mag With Zinc and Vitamins C and D; Hy C 3000 Anatabs; Hylavite; Hylazinc; Hypo Vites Tab; Hyporyl - Tab; I-care Multivitamin and Multimineral Tablets; INATAL Ultra; Iberet 500; Icaps; Icaps Time Release; Igatan F; Imedeen; Imm Formula; Imm Formula Cap; Immune Support; Inatal Advance; Infa Drops Multivitamins; Infant Multivitamin Drops; Infant's Multiple Vitamin Drops; Infantol Drops; Infants' Multiple Vitamin Drops; Infants' Vitamin Drops; Infuvite Adult Multiple Vitamins; Inner Health Vitamin Supplement Capsules; Innersource Tab; Insur-all Vitamin Supplement; Integra; Integra F; Integra Plus; Iron; Iron 25mg With Vit B-cmplx, Vit C, Cu & Mo; Iron Complex; Iron Plus Manganese, B12, Folic Acid & C; Iron Plus Tab; Iron Polysaccharides Folic Acid DHA; Iron Vitamins B6,b12,c,folic Acid Tab; Iron With Vitamins C and E - Tab; Isotonix Atx Vitamin Mineral Formula; Isotonix Multitech Vitamin Mineral Supplemen; Itabs Plus; J.T. Formula; Jenliva; Junior Multi Vitamins - Regular; K.L. Vitamin-mineral; Kama Caze Syrup; Kamu Jay Liq 300mg/tsp; Kamu Jay Multi Complex Tab; Kamu Jay Tab 150mg; Kanga C; Kanga Sport Vitamins B & C Plus Minerals; Kanga-B Vitamin B Group + C; Kanga-V Multivitamins & Minerals; Kanga-kid Multi-vitamin & Mineral; Kanga-kid Vitamin C; Kenwood Liquid Supplement; Kid's Choice Children's Chewable Vitamins - Tab; Kidmag Vitamins W Magnesium Tab; Kids Stuff Tablets; Kids Stuff With Iron Tablets; Kimchi Vitamin chewable multivitamin; Kindervites; Kolvac; L-Methyl PNV DHA; L.C. Supplement; L.G.I.T.; LYDIA PINKHAM Herbal Supplement; Lemon Time; Leonas Vitamin C; Lexazin; Life Vit C Timed Release Tab 1000mg; Life Vit C Timed Release Tab 500mg; Lipall Plus Tab; Lipo-B-C Tab; Liqud Vitamin C; Liqui C-300; Liqui Infant Vitamins; Liqui Vita; Liquid Vitamin C; Liquid Vitamin C 500mg; Livron Plus Tab; Lorid; Luna Vitamin and Mineral Bar for Women; Lysamine Diet Supp Amp-tab; M-Natal Plus; M.V.I. 12; M.V.I. Adult; M.V.I. Paediatric; M.V.I. Pediatric; M.V.I.-12; MVC-Fluoride; MYNEPHROCAPS DIALYSIS/STRESS Vitamin Supplement; Macuvex; Macuzin; Magnum-75 Vitamin and Mineral Supplement; Mangadyn; Marnatal F; Master Key Multi Vitamin Multi Mineral Formula 2; Materna; Materna - Tab; Materna-tab; MaxFe; Maxaron Forte; Maxi 10 Tab; Maxi 6 Liq; Maximum Once A Day; Mebolex; Mebolic; Mega Balance; Mega C 1000 Complex Tab 1000mg; Mega C 500 Complex; Mega C 500 Complex Tab 500mg; Mega C Acid Inj 500mg/ml; Mega C500 Complex Tab 500mg; Mega Plex III - Pck; Mega Plex IV - Pck; Mega Vitaminerals; Mega-C-acid Plus; Mega-vim 75 With Beta-carotene - Tablets; Megavite Rx; Megavites Tab; Men's; Men's 50+; Men's Biomultiple Vitamin and Mineral Supplement; Meplex T 750; Metreton Tab; Milk Calcium With Vitamins C, D, and Phosphorous; Milltrium Senior Vitamin and Mineral Supplement; Moms Choice Rx; Mor-vites Tab; MoviPrep; Moviprep; Mr. Tumee Multi-vitamin; Mr. Tumee Worms; Multi #2; Multi - N.T.O.x Formula - Tab; Multi 1000; Multi 12 Injection; Multi Enfants Tab; Multi II IV Vi Tab; Multi Mins Liquid; Multi Nt-OX; Multi Plex I - Tab; Multi Plex II - Tab; Multi Tabs; Multi Vitamin & Minerals; Multi Vitamin - Mineral; Multi Vitamin Drops with Fluoride; Multi Vitamin Drops with Fluoride and Iron; Multi Vitamin Drops with Fluoride with Iron; Multi Vitamin Plus Iron; Multi Vitamin and Fluoride; Multi Vitamin and Mineral vitamin; Multi Vitamin with Fluoride; Multi Vitamin, Iron and Fluoride; Multi Vitamin-mineral Formula; Multi Vitamines - Liq; Multi Vitamins & Minerals; Multi Vite Liq Junior; Multi-11; Multi-12 Pediatric; Multi-12/k1 Pediatric; Multi-Nate 30; Multi-Vit with Fluoride; Multi-Vit with Fluoride and Iron; Multi-Vitamin; Multi-Vitamin Drops with Fluoride and Iron; Multi-Vitamin Fluoride; Multi-Vitamin Fluoride Drops; Multi-Vitamin Fluoride and Iron Drops; Multi-Vitamin With Fluoride; Multi-Vitamin with Fluoride; Multi-actin; Multi-force for Women Tab; Multi-fruits Chewable Vitamin C 500mg Tablet; Multi-kid; Multi-min Electro C Pow Plus B2; Multi-phyto Capsules; Multi-vitamin Dietary Supplement; Multi-vitamines Enfants Comprime; Multi-vitamins; Multi-vitamins With Minerals; MultiVitamin Drops with Fluoride and Iron; MultiVitamin with Fluoride; MultiVitamin with Fluoride Chewable; MultiVitamin with Fluoride Drops; MultiVitamin, Iron and Fluoride Drops; Multicaps; Multinate DHA; Multinate DHA Extra; Multipack II; Multiple Vit Plus Iron Tab; Multiple Vitamin Plus Minerals Tab; Multiple Vitamin Tab; Multiple Vitamins; Multiple Vitamins & Minerals Tablets; Multiple Vitamins - Tablet; Multiple Vitamins Childrens Chewable; Multiple Vitamins Plus Iron - Tab; Multiple Vitamins Plus Iron Tab; Multiple Vitamins Plus Iron for Women; Multiple Vitamins Tab; Multiple Vitamins W Iron Tab; Multiple Vitamins W Minerals Tab; Multiple Vitamins With Iron; Multiple Vitamins With Minerals Tablets; Multiple Vitamins and Minerals; Multiple Vitamins and Minerals Capsules; Multiple Vitamins and Minerals Tab; Multitabs; Multivit Et Fer Ampoules Et Comprimes; Multivit with Fluoride; Multivitamin; Multivitamin & Minerals (iron Free); Multivitamin & Multimineral; Multivitamin Drops with Fluoride; Multivitamin and Mineral; Multivitamin with Fluoride; Multivitamin with fluoride; Multivitamines; Multivitamines Et Mineraux; Multivitamines Et Mineraux Junior Regulier; Multivitamines Et Mineraux Reguliers / Regular Multivitamins and Minerals; Multivitamins; Multivitamins W Iron; Multivitamins W Minerals Extra Strength; Multivitamins and Minerals - Complete; Multivitamins and Minerals Tablets; Multivitamins and Minerals With Betacarotene Tablets; Multivitamins and Minerals for Men; Multivitamins and Minerals for Women; Multivitamins and Minerals for Young Men; Multivitamins and Minerals for Young Women; Multivitamins and Multiminerals Formula Regular Tablet; Multra Plex; Multra With Iron; Munit-E Tablet; Mvc; Mvc 9 Plus 3 Inj; Mvc 9+4 Inj; Myhephron Dialysis and Stress Supplement; NEONATAL Complete; NESTABS ABC Prenatal Multi-vitamin/Mineral Supplement with DHA/EPA; Nata Komplete; NataChew; NataFort; Natal-V RX Multi-vitamin/Multi-mineral; Natalvirt 90dha; Natalvirt Ca; Natalvirt FLT; Natavite; Natelle One; Natura Magnesium Plus Vitamin C; Natural Source C 250 Tab 250mg Chewable; Natural Source Spectrum With Beta Carotene; Neo Citran A Powder; Neo Citran Powder; Neo Vites Tab; Neo-vites & Minerals Tab; Neomultivite; Neonatal DHA; Neonatal Fe; Neonatal Plus Vitamin; Neonatal Vitamin; Neonatal19; NephPlex Rx; Nephrocaps; Nephrocaps-QT; Nephron FA; Nexa Plus; Nexa Select; Nexa Select Rx Prenatal Vitamin with Plant-Based DHA; Ni-C-E-LE Plus; Niacinamide 250mg With 50mg C; Niacinamide 250mg With Vitamin C; Nicadan; Niferex; Nighttime Extra Strength Contac Complete Cough, Cold & Flu Plus Vitamin C; Niron Komplete; Niva-Plus; No440 Cap; NovaFerrum; NovaFerrum Multivitamin with Iron Pediatric Drops; NovaMV Multivitamin; Now; NuFera; Numark Multivitamins; Nutra Boost; Nutra-clear; Nutria; Nutrilite Double X; Nutrol C Cap 150mg; Nutrol C Tab 150mg; Nutrol V Capsule; O-Cal FA multivitamin; O-Cal Prenatal Vitamin; OB Complete Prenatal; Obagi; Ocuvel; Ocuvite Tab; Ocuvite Vitamin and Mineral Supplement; Ocuvite Vitamin and Mineral Supplement Capsules; Olympian Multi Vit Plus Minerals Tab; Omega-3 Rx Complete; Omniquin; Omnivex; Onccor; Oncovite; One A Day Advance Adults; One A Day Advance Adults 50+; One A Day Advance Fem; One A Day Multiple Vit W Minerals; One A Day Tab; One A Day With Non-medicinal Echinacea; One Daily Vitamin and Mineral Dietary Supplement; One Per Day Vitamin and Mineral Dietary Supplement; One Tablet Daily Mens Formula; One-A-day Advance Fem - Tablets; One-A-day Advance Men's; Only One - Tablet; Optivite Vitamin and Mineral Supplement Tablet; Orange C Tablets 150mg; Orange Chewable; Orange Flavored Crystal Chews Tab; Orifer F; Original Bioscal Forte Multi-vitamin Supplement Capsules; Orti C; Osteo Factors; Osteo Formula Tab; Osteo Regime; Osteo Tablets; Osteo-force; P-plus; P.N. Vitamin-mineral Drink; P.N.P. Vitamin Drink; PEG-3350, Electrolytes, and Ascorbate; PM Caps; PNV Ferrous Fumarate Docusate Folic Acid; PNV Prenatal Plus Multivitamin; PNV Prenatal Vitamin; PNV Prenatal Vitamin Plus Vitamin A; PNV Tabs 29-1; PNV-First; PNV-Omega; PNV-Select; PR Natal 400; PR Natal 400 ec; PR Natal 430; PR Natal 430 ec; PRENATE Enhance; PRENATE Restore; Palm Springs Multvit and Min Tab; Paramettes Beta Carotene With Vitamins C & E; Paramettes Chewable Multivitamins Plus Iron; Paramettes Chewable Multivits With Iron Tab; Paramettes Multivits Plus Iron Tab (teens); Paramettes Syrup; Pediatric Infuvite Multiple Vitamins; Pediatric Infuvite Multiple Vitamins for Infusion; Peg-3350, Sodium Sulfate, Sodium Chloride, Potassium Chloride, Sodium Ascorbate and Ascorbic Acid; Penta-thion Pwr; Perfect Harvest; Pharmacitron; Phytomin C Tab 500mg; Phytomin-C 500 Tab 500mg; Phytoplex B Liq; Phytopure; Phytovim Cap; Plenvu; Ply Vi Sol Chewable Tab; Pnv Ob DHA; Pnv-OB-dha; Pnv-dha; Poly Vi Flor Chewable Tab; Poly-Vi-Flor; Poly-Vitamin with Fluoride; Polymine Avec Zinc Et Cuivre; Powertech Vitamin and Mineral Supplement; PreFol-DHA; PreGen DHA; PreGenna; PreNatal 19; PreNatal Vitamins Plus; PreNexa; PreNexa premier; PrePLUS; PreQue 10; PreTAB; PreferaOB ONE; PreferaOB One; Pregvit; Pregvit Folic 4; Pregvit Folic 5; Premium Prenatal; Premium Prenatal - Tablets; Prena1; Prena1 Plus; Prenaissance; Prenara; Prenatabs FA; Prenatal; Prenatal Formula Tab; Prenatal Mega Antioxidant; Prenatal Plus; Prenatal Plus Iron; Prenatal Plus Multivitamin Plus DHA MiniCaps; Prenatal Supplement - Tab; Prenatal Vitamin No 53 Iron Fum Folic Acid Docusate CA DHA; Prenatal Vitamin and Mineral Supplement; Prenatal Vitamin and Mineral Supplement -tab; Prenatal Vitamin and Mineral Supplement Tab; Prenatal Vitamins Plus; Prenatal Vitamins Plus Low Iron; Prenatal Vitamins and Minerals Tablets; Prenatal and Post Partum Supplement; Prenatal, DHA; Prenate DHA; Prenate Elite; Prenate Essential; Prenate Mini; Prenate Pixie; Prenate Star; Prenatrix; Prenatryl; Prenatvite; Prenatvite Complete; Prenatvite Plus; Preplus; Prevital Tab; Prim - Royal P.M.T.; Pro Enz Tab; Pro Hers Vanilla; Pro-ace; Puralor; Q.T. #4 Vitamin and Mineral Dietary Supplement; Q.T. Vitamin and Mineral Drink Mix; Quflora FE; Quflora FE Pediatric Drops; Quflora Gummies; Quflora Pediatric; Quflora Pediatric Drops; RE FAC-x; RE Nata; RE Nata OB; RE Prenatal Multivitamin with Iron; Re Kar C Plus; Re Ob 90 DHA; Reaphirm Plant Source DHA; Redoxon-cal; Reebok; Reliv So Sense Daily Vitamin Supplement; Relnate DHA; Remedient; Remedium - Liq Orl; Renadyn Tab; Renal Caps Dialysis/Stress Vitamin Supplement; Renate; Renate DHA; Reno Caps; Replavite; Revit Multi-vitamins and Minerals; Revit Plus Cap; Revit Tab; Revitalize Multi-vitamin and Mineral Complex; Revival 1 Tab; Rhume Et De LA Grippe (extra-fort); Right Choice A.M. Multi Formula - Caplet; Rocky Mountain Oj's Chewable Vitamin C Tab; Rogenic; Rose Hips 500plus Nu Life; Rulavite DHA; Sago-C-500 Tab 500mg; Samson; Scorbatate; Se-Natal 19; Se-Plete DHA; Se-Vate 21/7; Select OB; Select-OB Plus DHA Prenatal Supplement Plus DHA; Selenium '100' Plus C&e; Selenium 200mcg Plus C & E Tab; Selenium Plus; Selenium Plus C & E; Senior Multi One; SetonET; SetonET-EC; Sincera - Tablets; Sodium Ascorbate and Ascorbic Acid Pwr; Somarexin and C 1000; Somavit Brand Vitamins and Minerals Complex; Sopalamine 3b Plus; Sopalamine/3b Plus C; Spd Tab; Special C; Spectra 301 Vitamin and Mineral Supp; Spectrum 2 Cap; Spectrum Performa Multivitamins and Minerals Tablets; Stress B & C Caplet; Stress B Capsules With Vitamin C; Stress B Complex With C and E Tab; Stress B Complex With C, E & Iron; Stress B Complex With C, E and Iron Tab; Stress B Complex With C,e, Zinc and Copper; Stress B With 1000 Mg Vitamin C; Stress B&c Tab; Stress B-complex Plus Iron With Vitamins C&e; Stress Complex 600 Avec Vit E Cuivre Zinc; Stress Ctr Srt; Stress Formula; Stress Formula + Iron; Stress Formula B-comp + 500mg Vit C Tab; Stress Formula Multi-B Comp + 500mg Vit C Cap; Stress Formula Multivitamin Tablets USP; Stress Formula Tab; Stress Formula Vit B With C Complex; Stress Forte Plus Lipotropic Factors; Stress Tab; Stress Tab With Iron and Vitamin E; Stress Tab With Zinc, Copper and Vitamin E; Stress Tablets; Stress Vitamin B With C Complex Tablets; Stressmates; Stresstabs + Zinc-copper; Strovite Forte Caplet; Strovite One Caplets; Sun-rype Vitaburst; Super 7 Vitamin and Mineral Supplement; Super B Compound W 500mg Vit C; Super B.P. Vitamin C; Super C 1000mg; Super C With Non-medicinal Rosehips Tab; Super C-complex-1000 Extra Strength; Super C-complex-1500 Ultra Strength; Super C-complex-500 Regular Strength; Super Charged Energy; Super Citro Cee Srt 500mg; Super Daily No 2; Super Kids Chewable Multivitamin Multimineral (chewable Tablets); Super Multi; Super Pantoplex; Super Stress Capsules; Super Stress Mega B Plus 1000mg Vit C Tab; Super Vita Vim Multivitamins and Minerals; Super Vita-vim With Beta-carotene - Tab; Super-A Vitamins With Selenium Dietary Supplement; Super-cell; Super-pote Vitamin Supplement; Supplement De Multivitamines Infusion Arome Fruits Rouges; Supplement De Vitamine C; Supplement De Vitamines Et Mineraux; Supravite C 1000; Supravite Pour Enfants; Supravite Stress Avec Vit E; Supravite Stress Avec Vit E Cuivre Et Zinc; Supravite Stress Avec Vit E Et Fer; Surbex 500 Filmtab; Surbex-500 With Iron; Surbex-500 With Zinc; Sustained Release Vitamin C 500mg; Sveets; Sveets Orange Burst; Sweet Sixteen - Tab; Swical-energy 3e Age; Swiss Camu C Tab 150mg; Swiss One; Swiss One Multi Vit & Chel Min Tab; Swiss One Multivitamin and Mineral Caplet; Swiss One Timed Release Tab; Swiss Total One; Synergisti-C; Synergistic Manganese Cap; Synergistic Manganese Capsules; Synergistic Selenium; TL-Care DHA; TL-Fluorivite; TL-Fol 500; TL-Folate; TL-Icon; TL-Select; TL-Select DHA; TRONVite; Tandem DHA; Tar-end; Taron BC; Taron-C DHA; Taron-prex Prenatal; Tender Age Multi Vitamins; Tender Age Vit Adc Drops; Tendera-OB; Theraplex Acp; Thiamine HCl 100mg W C 20mg; Thrivite 19; Thrivite Rx; Thymunase Tab; Tianshi Beneficial Capsules; Time Rel Vit C Tab 1000mg; Time Release C 500mg; Timed C 1000 + Caplet 1000mg; Timed Release C 1000mg Srt; Timed Release C 1000mg Tab; Timed Release Ester-C 1000mg; Timed Release Vit. C-1000 Caplet; Timed Release Vita-vim Srt; Timed Release Vitamin C 500 mg; Timed Release Vitamin C Tablet With Bioflavanoids; Timed Release and Esterified Vitamin C-1000; Timed Release and Esterified Vitamin C-500; Timedose Vitamin C 1000mg; Timedose Vitamin C Tab 500mg; Tl-hem 150; Tobakient; Tonicol Et A-D-C Ampoules/comprimes; Tonimol Cap Liq; Total Flu; Total Living Concepts Formula One - Tab; Totalvit Plus; Tozal; Tri Adrenopan; Tri C 500 Src; Tri Vi Flor Tab; Tri-Vit With Fluoride And Iron Drops; Tri-Vit with Fluoride Drops; Tri-Vitamin with Fluoride; Tri-Vitamin with iron and fluoride; Tri-Vite Drops with Fluoride; TriAdvance; TriStart DHA; TriStart ONE; Tricare Prenatal; Tricare Prenatal 2-part Daily Prenatal Vitamin System; Tricare Prenatal Compleat; Tricare Prenatal DHA One; Tricare Prenatal DHA One Rx Multivitamin; Tricare Prenatal DHA One With Folate; Tricare Prenatal Quick Dissolve; Tricon; Trigels-F Forte; Trinatal GT; Trinatal Rx 1; Trinatal Ultra; Trinaz; TriphroCaps; Triple Vitamin Drops with Fluoride; Triple-Vitamin Drops with Fluoride; Triveen-Duo DHA; Triveen-PRx RNF; Tropicana Calcium & Vitamin C Supplement; Tropicana Calcium and Vitamin C Supplement; Tropicana Vitamin C Supplement; Twin Ultra Liquid Fruit Punch Flavor; Twin Ultra Liquid Grape Flavor; Twin Ultra Liquid Lemon-lime Flavor; Twin Ultra Liquid Orange Flavor; UltimateCare ONE; Ultra Hr; Usana Megavitamin Tablets - Tab; V & M Vitamin and Mineral Supplement; V-V Dietary Supplement; VIL-Rx; VITAFOL Gummies; VITAMINS A, C, D and FLUORIDE; VP-HEME One; VP-Iron-C; VP-Iron-C Plus; VP-Vite Rx; Vasculine; Vasodyn Tab; Vasula Tab; Vege 1 Daily Tab; Vege Swiss One Multivitamin W Chel Mins Tab; VemaVite-PRx 2 with Fish-Based DHA; Vena-Bal DHA; Vi-daylin Adc Vitamins Drops for Infants; Viamon Ampoules Et Comprimes; Vigo Multivitamins Drops/lozenge; Vimeral Tab; Vinacal; Vinate AZ; Vinate Care; Virt Nate; Virt Vite GT; Virt-Advance; Virt-C DHA; Virt-Caps; Virt-Care One; Virt-Nate; Virt-Nate DHA; Virt-PN; Virt-PN DHA; Virt-PN Plus; Virt-Pn; Virt-Select PRENATAL/POSTNATAL; Virt-Tabs; Virt-Vite Plus; VirtPrex; Vit B Complex Plus Vit C 550mg; Vit C Chew Tab 250mg; Vit C Chew Tab 300mg; Vit C Chew Tab 500mg; Vit C Ctr 1000mg; Vit C Ctr 500mg; Vit C Sustained Release Tab 1000mg; Vit C Tab 1000mg; Vit C Tab 250mg; Vit C Tab 500mg; Vit C Timed Release Tab 500mg; Vit C W Calc-mag and Potass Powder; Vit-HA Multi Vitamin and Zinc Supplement; Vit.c With N-M.bioflav.rose Hips and Rutin; Vita B + C 500 Tab; Vita C 550 Ampoules Buvables 550mg/amp; Vita C Tab 150mg; Vita Day Tab; Vita Plex Tab; Vita Vim Multivitamins and Minerals Tab; Vita Vim With Beta Carotene-caplet; Vita-Rx Diabetic Vitamin; Vita-vim - Tab; Vita-vim With Beta-carotene - Tab; Vita-worth Vitamin C Tablets 500mg; VitaPhil Aide; VitaXyme; Vitachrom Gc; Vitaday Junior Tab; Vitaday Tab; Vitafant; Vitaflex Dietary Suplement; Vitafol Caplet; Vitafol Fe Plus; Vitafol OB Caplet; Vitafol One; Vitafol Plus; Vitafol Ultra; Vitafol-OB Plus DHA Prenatal Supplement Plus DHA; Vital Be-100; Vital-D Rx; Vitalife - Capsule; Vitalis; Vitamin & Mineral Formula 1 Dietary Supplement; Vitamin B + C Cap; Vitamin B Complex + C 300mg Cap; Vitamin B Complex + C 600mg Tab; Vitamin B Complex Plus 300mg Vitamin C; Vitamin B Complex Plus C 300mg Timed Release; Vitamin B Complex W C 300mg Tab; Vitamin B Complex W C Tab; Vitamin B Compound W C Tab 500mg; Vitamin B Compound W Vit C 250mg Tab; Vitamin B Compound With Vitamin C Fortis Capsule Dtc; Vitamin B Cpd W Vit C Tab; Vitamin C; Vitamin C & Zinc Tab; Vitamin C + Zinc Tab; Vitamin C 100 Mg Chewable Tablets; Vitamin C 100 Mg Orange Chewable; Vitamin C 1000; Vitamin C 1000 Mg - Tablet; Vitamin C 1000 Mg Chewable - Tablet; Vitamin C 1000 Mg Timed Release - Tablet; Vitamin C 1000 mg; Vitamin C 1000mg; Vitamin C 1000mg Cap; Vitamin C 1000mg Chewable Tablets; Vitamin C 1000mg Dietary Supplement; Vitamin C 1000mg Time Release; Vitamin C 1000mg Time Release Form; Vitamin C 1000mg Timed Release Tablets; Vitamin C 1000mg W/ Non-medicinal Echinacea; Vitamin C 1000mg W/rose Hips Timed Release Tablet; Vitamin C 100mg Capsules; Vitamin C 1500mg - Tab; Vitamin C 1500mg Time Released Srt; Vitamin C 1500mg Timed Release Tablet; Vitamin C 250 Mg Chewable; Vitamin C 250 Mg Chewable - Tablet; Vitamin C 250 Mg Orange Chewable; Vitamin C 250 mg; Vitamin C 250mg Chewable; Vitamin C 250mg Chewable Orange Tablets; Vitamin C 250mg With Non-medicinal Echinacea & Lemon Bioflavonoids; Vitamin C 250mg With Non-medicinal Rose Hips; Vitamin C 250mg With Non-medicinal Rose Hips Dietary Supplement; Vitamin C 300mg Plus Acerola Tab; Vitamin C 350 Tab 350mg; Vitamin C 400mg Tab; Vitamin C 500 Mg (mixed Citrus Flavour); Vitamin C 500 Mg (natural Source Orange Flavour); Vitamin C 500 Mg 5 Fruit Chewable; Vitamin C 500 Mg Chewable - Tablet; Vitamin C 500 Mg Orange Chewable; Vitamin C 500 Mg Tab; Vitamin C 500 Mg With Rosehips; Vitamin C 500 Tab Chewable; Vitamin C 500 mg; Vitamin C 500mg; Vitamin C 500mg (chewable Orange); Vitamin C 500mg Caps Time Release; Vitamin C 500mg Chewable; Vitamin C 500mg Chewable Orange Tablets; Vitamin C 500mg Chewable Tablets; Vitamin C 500mg Chewable Tablets Tropical Flavour; Vitamin C 500mg Src Time Release; Vitamin C 500mg Tab; Vitamin C 500mg Tablets; Vitamin C 500mg Time Release; Vitamin C 500mg Timed Release; Vitamin C 500mg Timed Release Tab USP; Vitamin C 500mg Timed Release Tablets; Vitamin C 500mg With Non-medicinal Echinacea; Vitamin C 500mg With Non-medicinal Rose Hips; Vitamin C 600mg; Vitamin C Ascorbic Acid Tab 1000mg; Vitamin C Cap 1000mg; Vitamin C Chew Sug Fr 500mg; Vitamin C Chewable; Vitamin C Chewable 250mg; Vitamin C Chewable 500mg; Vitamin C Crystals; Vitamin C Crystals 5gm/5ml; Vitamin C Crystals Pwr 4000mg/tsp; Vitamin C Extra Time Released Tab 1800mg; Vitamin C Orange Chewable Tab 500mg USP; Vitamin C Powder; Vitamin C Src 500mg Timed Release; Vitamin C Srt 1.5gm; Vitamin C Srt 1000mg; Vitamin C Srt 1500mg; Vitamin C Srt 500mg; Vitamin C Sustained Release Tabs 1000mg; Vitamin C Tab 1000mg; Vitamin C Tab 1000mg Chewable; Vitamin C Tab 1000mg Timed Release; Vitamin C Tab 1000mg USP; Vitamin C Tab 100mg; Vitamin C Tab 100mg Chewable; Vitamin C Tab 100mg Chewable Orange; Vitamin C Tab 100mg Orange Flavoured Chewable; Vitamin C Tab 1500mg Timed Release; Vitamin C Tab 250mg; Vitamin C Tab 250mg Chewable; Vitamin C Tab 250mg Chewable Orange; Vitamin C Tab 250mg Orange Flavoured Chewable; Vitamin C Tab 250mg USP; Vitamin C Tab 250mg Watkins; Vitamin C Tab 500 mg; Vitamin C Tab 500mg; Vitamin C Tab 500mg Chewable; Vitamin C Tab 500mg Chewable Orange; Vitamin C Tab 500mg Orange Flavor; Vitamin C Tab 500mg Orange Flavoured Chewable; Vitamin C Tab 500mg USP; Vitamin C Tab USP; Vitamin C Tablets 1000mg; Vitamin C Tablets 1500mg Timed Release; Vitamin C Tablets 250mg; Vitamin C Tablets 500mg; Vitamin C Tablets Chewable 250mg; Vitamin C Tablets Chewable 500mg; Vitamin C Tablets Sustained Release 500mg; Vitamin C Tablets Time Release 1000mg; Vitamin C Tablets Time Release 500mg; Vitamin C Tablets USP 500mg; Vitamin C Timed Release Tab 1000mg; Vitamin C Timed Release Tab 1500mg; Vitamin C Timed Release Tab 500mg; Vitamin C Ultra Fine Pwr 1000mg/tsp; Vitamin C W Chelates Tab; Vitamin C Wafers 100mg; Vitamin C With Acerola Tab; Vitamin C and Zinc Lozenges; Vitamin C-force 1000mg Tablets; Vitamin C-force 500mg Tablets; Vitamin E + 3 (extra Strength); Vitamin E + 3 Extra Strength With Zinc; Vitamin E 400 Iu With Selenium, Vitamin C & Manganese; Vitamin and Mineral Supplement Capsules; Vitamine C - Liq Orl 50mg/ml; Vitamine C 1000 Action Prolongee; Vitamine C 1000 Tab 1000mg; Vitamine C 1000mg-liq; Vitamine C 100mg 5 Fruits-tab; Vitamine C 100mg Tab Masticable; Vitamine C 150 mg; Vitamine C 250 Mg Masticable - Tablet; Vitamine C 250 Mg USP - Tablet; Vitamine C 250mg Tab Masticable; Vitamine C 500; Vitamine C 500 A L'orange; Vitamine C 500 Action Prolongee; Vitamine C 500 Mg Raisin - Tablet; Vitamine C 500 Mg USP - Tablet; Vitamine C 500mg 5-fruits - Tab; Vitamine C 500mg 5-fruits Tab; Vitamine C Cap 500mg; Vitamine C Croquable Tab 500mg; Vitamine C Liq 500mg/10ml; Vitamine C Tab 100mg; Vitamine C Tab 100mg Masticables; Vitamine C Tab 100mg USP; Vitamine C Tab 250mg; Vitamine C Tab Masticable 250mg USP; Vitamine C Timed Release Tab 500mg; Vitamine-C 100mg - Croquer (orange); Vitamines Et Mineraux; Vitamines Et Mineraux Comprimes; Vitamines Pour Bebes Et Enfants; Vitamins A, C & E Cap.; Vitamins A, C, D and Fluoride Drops; Vitamins C Plus E W.beta Carotene and Se; Vitaphil 90 DHA; Vitaphil DHA; Vitaplex; Vitarain Vitamin Shower Filter; Vitarich C; Vitasure; Vitazyme; Vitogen B Stress C Vit E Zinc & Cop; Vitogen B Stress C600; Vitogen Multiple Vitamins Tab; Vitrexate; Vitrexate FE; Vitrexyl; Vitrexyl plus Iron; Viva CT Prenatal; Viva Kids - Tab; Vol-Care Rx; Vol-Nate; Vol-Plus; Vol-Tab Rx; Vp-pnv-dha; Vtb Vitamin and Mineral Supplement; Webber E Plus 3 Cap; Wellness Formula; WesTab Plus; WestGel DHA; Women's Biomultiple Vitamin and Mineral Supplement; Women's Change Formula; Women's Formula; Women's Support Tablets; Xvite; Xyzbac; Xyzbac G; Xyzmune; Yumaki Original Mint Tooth; Z Bec Tab; Z-force Vitamin and Mineral Supplement; Zalvit; Zatean-Pn; Zatean-Pn DHA; Zatean-Pn Plus; Zavitrol; Zinc 50mg W Vitamin C; Zinc C Lozenges; Zinc Lozenges With Vitamin C; Zinc Lozenges With Vitamin C - Loz; Zinc Lozenges With Vitamin C Dietary Supplement; Zinc Lozenges With Vitamin C In A Nonmedicinal Base With Echinacea Lozenge; Zinc Lozenges With Vitamin C and Non-medicinal Echinacea; Zinc Plus Extra C; Zinc Plus Lozenges; Zinc Plus Vitamins C & B6 Lozenges; Zinc With C - Loz; Zinc With C Lozenge; Zinc With C Lozenges; Zinc With Vitamin C Lozenge; Zinc and Vitamin C Lozenges; Zinc-C Lozenges; Zinc-C-lozenges; Zoo Chews; Zoo Chews Plus Iron; Zyvit; arthronSAN; healthy mamaBE WELL ROUNDED BE WELL ROUNDED; natelle COMPLETE; vitaMedMD One Rx; vitaMedMD Rx Plus

> <INTERNATIONAL_BRANDS>
Ascoltin; Ascorbicap

$$$$
127
  Mrv0541 02231214272D          

 14 13  0  0  0  0            999 V2000
    4.9504    0.2063    0.0000 N   0  0  0  0  0  0  0  0  0  0  0  0
    8.5226   -0.2063    0.0000 N   0  0  0  0  0  0  0  0  0  0  0  0
    2.0928    0.2063    0.0000 N   0  0  0  0  0  0  0  0  0  0  0  0
   11.3804   -0.2063    0.0000 N   0  0  0  0  0  0  0  0  0  0  0  0
    6.3793    0.2063    0.0000 C   0  0  0  0  0  0  0  0  0  0  0  0
    7.0938   -0.2063    0.0000 C   0  0  0  0  0  0  0  0  0  0  0  0
    5.6650   -0.2063    0.0000 C   0  0  0  0  0  0  0  0  0  0  0  0
    7.8082    0.2063    0.0000 C   0  0  0  0  0  0  0  0  0  0  0  0
    4.2361   -0.2063    0.0000 C   0  0  0  0  0  0  0  0  0  0  0  0
    9.2371    0.2063    0.0000 C   0  0  0  0  0  0  0  0  0  0  0  0
    3.5217    0.2063    0.0000 C   0  0  0  0  0  0  0  0  0  0  0  0
    9.9515   -0.2063    0.0000 C   0  0  0  0  0  0  0  0  0  0  0  0
    2.8072   -0.2063    0.0000 C   0  0  0  0  0  0  0  0  0  0  0  0
   10.6658    0.2063    0.0000 C   0  0  0  0  0  0  0  0  0  0  0  0
  1  7  1  0  0  0  0
  1  9  1  0  0  0  0
  2  8  1  0  0  0  0
  2 10  1  0  0  0  0
  3 13  1  0  0  0  0
  4 14  1  0  0  0  0
  5  6  1  0  0  0  0
  5  7  1  0  0  0  0
  6  8  1  0  0  0  0
  9 11  1  0  0  0  0
 10 12  1  0  0  0  0
 11 13  1  0  0  0  0
 12 14  1  0  0  0  0
M  END
> <DATABASE_ID>
DB00127

> <DATABASE_NAME>
drugbank

> <SMILES>
NCCCNCCCCNCCCN

> <INCHI_IDENTIFIER>
InChI=1S/C10H26N4/c11-5-3-9-13-7-1-2-8-14-10-4-6-12/h13-14H,1-12H2

> <INCHI_KEY>
PFNFFQXMRSDOHW-UHFFFAOYSA-N

> <FORMULA>
C10H26N4

> <MOLECULAR_WEIGHT>
202.3402

> <EXACT_MASS>
202.215746852

> <JCHEM_ACCEPTOR_COUNT>
4

> <JCHEM_AVERAGE_POLARIZABILITY>
26.694691643339333

> <JCHEM_BIOAVAILABILITY>
1

> <JCHEM_DONOR_COUNT>
4

> <JCHEM_FORMAL_CHARGE>
0

> <JCHEM_GHOSE_FILTER>
0

> <JCHEM_IUPAC>
(3-aminopropyl)({4-[(3-aminopropyl)amino]butyl})amine

> <ALOGPS_LOGP>
-0.66

> <JCHEM_LOGP>
-1.4540076160000006

> <ALOGPS_LOGS>
-1.97

> <JCHEM_MDDR_LIKE_RULE>
0

> <JCHEM_NUMBER_OF_RINGS>
0

> <JCHEM_PHYSIOLOGICAL_CHARGE>
4

> <JCHEM_PKA_STRONGEST_BASIC>
11.099251803165696

> <JCHEM_POLAR_SURFACE_AREA>
76.1

> <JCHEM_REFRACTIVITY>
62.558200000000014

> <JCHEM_ROTATABLE_BOND_COUNT>
11

> <JCHEM_RULE_OF_FIVE>
1

> <ALOGPS_SOLUBILITY>
2.19e+00 g/l

> <JCHEM_TRADITIONAL_IUPAC>
spermine

> <JCHEM_VEBER_RULE>
0

> <DRUGBANK_ID>
DB00127

> <SECONDARY_ACCESSION_NUMBERS>
NUTR00055; EXPT02947; DB02564

> <DRUG_GROUPS>
experimental; nutraceutical

> <GENERIC_NAME>
Spermine

> <SYNONYMS>
4,9-diaza-1,12-dodecanediamine; 4,9-diazadodecane-1,12-diamine; Musculamine; N,N'-Bis(3-aminopropyl)-1,4-butanediamine; Spermina; Spermine

> <SALTS>
Spermine dihydrate

$$$$
128
  Mrv0541 02231214282D          

  9  8  0  0  1  0            999 V2000
    5.6655   -0.0784    0.0000 O   0  0  0  0  0  0  0  0  0  0  0  0
    2.0930    0.3341    0.0000 O   0  0  0  0  0  0  0  0  0  0  0  0
    4.9509    1.1592    0.0000 O   0  0  0  0  0  0  0  0  0  0  0  0
    2.8075   -0.9034    0.0000 O   0  0  0  0  0  0  0  0  0  0  0  0
    4.2365   -0.9034    0.0000 N   0  0  0  0  0  0  0  0  0  0  0  0
    4.2365   -0.0784    0.0000 C   0  0  1  0  0  0  0  0  0  0  0  0
    3.5220    0.3341    0.0000 C   0  0  0  0  0  0  0  0  0  0  0  0
    4.9509    0.3341    0.0000 C   0  0  0  0  0  0  0  0  0  0  0  0
    2.8075   -0.0784    0.0000 C   0  0  0  0  0  0  0  0  0  0  0  0
  1  8  1  0  0  0  0
  2  9  1  0  0  0  0
  3  8  2  0  0  0  0
  4  9  2  0  0  0  0
  6  5  1  1  0  0  0
  6  7  1  0  0  0  0
  6  8  1  0  0  0  0
  7  9  1  0  0  0  0
M  END
> <DATABASE_ID>
DB00128

> <DATABASE_NAME>
drugbank

> <SMILES>
N[C@@H](CC(O)=O)C(O)=O

> <INCHI_IDENTIFIER>
InChI=1S/C4H7NO4/c5-2(4(8)9)1-3(6)7/h2H,1,5H2,(H,6,7)(H,8,9)/t2-/m0/s1

> <INCHI_KEY>
CKLJMWTZIZZHCS-REOHCLBHSA-N

> <FORMULA>
C4H7NO4

> <MOLECULAR_WEIGHT>
133.1027

> <EXACT_MASS>
133.037507717

> <JCHEM_ACCEPTOR_COUNT>
5

> <JCHEM_AVERAGE_POLARIZABILITY>
11.284232994701322

> <JCHEM_BIOAVAILABILITY>
1

> <JCHEM_DONOR_COUNT>
3

> <JCHEM_FORMAL_CHARGE>
0

> <JCHEM_GHOSE_FILTER>
0

> <JCHEM_IUPAC>
(2S)-2-aminobutanedioic acid

> <ALOGPS_LOGP>
-3.52

> <JCHEM_LOGP>
-3.5037527551764525

> <ALOGPS_LOGS>
0.03

> <JCHEM_MDDR_LIKE_RULE>
0

> <JCHEM_NUMBER_OF_RINGS>
0

> <JCHEM_PHYSIOLOGICAL_CHARGE>
-1

> <JCHEM_PKA>
5.113750094894903

> <JCHEM_PKA_STRONGEST_ACIDIC>
1.7025435921010494

> <JCHEM_PKA_STRONGEST_BASIC>
9.614153755159162

> <JCHEM_POLAR_SURFACE_AREA>
100.61999999999999

> <JCHEM_REFRACTIVITY>
26.5327

> <JCHEM_ROTATABLE_BOND_COUNT>
3

> <JCHEM_RULE_OF_FIVE>
1

> <ALOGPS_SOLUBILITY>
1.42e+02 g/l

> <JCHEM_TRADITIONAL_IUPAC>
L-aspartic acid

> <JCHEM_VEBER_RULE>
0

> <DRUGBANK_ID>
DB00128

> <SECONDARY_ACCESSION_NUMBERS>
NUTR00016; EXPT01823

> <DRUG_GROUPS>
approved; nutraceutical

> <GENERIC_NAME>
Aspartic acid

> <SYNONYMS>
(S)-2-aminobutanedioic acid; (S)-2-aminosuccinic acid; 2-Aminosuccinic acid; ácido aspártico; Acidum asparticum; Asp; Aspartic acid; D; L-Asp; L-Asparaginsäure; L-Aspartate; L-Aspartic acid

> <PRODUCTS>
20% Prosol; Aminosyn II; Aminosyn II 10% With Electrolytes; Aminosyn II 5% Inj; Aminosyn II 7% Injection; Aminosyn II 7% M In 10% Dextrose(dual Chamber); Aminosyn II 7% With 10% Dextrose; Aminosyn II 7% With 50% Dextrose; Aminosyn II 8.5% Injection; Aminosyn II 8.5% M In 20% Dextrose (dual Chamber); Aminosyn II 8.5% With 50% Dextrose; Aminosyn II In Dextrose Injection; Aminosyn II and Dextrose; Aminosyn II in Dextrose; Aminosyn II with Electrolytes; Aminosyn II with Electrolytes in Dextrose with Calcium; Aminosyn-PF; Aminosyn-PF 10%; Aminosyn-PF 7%; Clinisol; Kabiven; Novamine; Olimel 3.3% E; Olimel 4.4%; Olimel 4.4% E; Olimel 5.7%; Olimel 5.7% E; Olimel 7.6%; Olimel 7.6% E; Perikabiven; Periolimel 2.5% E; Plenamine; Premasol - sulfite-free (Amino Acid); Primene; Primene 10%; Primene 10%-liq IV; ProSol; TrophAmine; Vamin 18 Electrolyte-free; Vamin N

$$$$

  Mrv0541 09081312202D          

  9  8  0  0  1  0            999 V2000
   -1.6671    0.2292    0.0000 C   0  0  0  0  0  0  0  0  0  0  0  0
   -0.9526   -0.1833    0.0000 C   0  0  0  0  0  0  0  0  0  0  0  0
   -0.2382    0.2292    0.0000 C   0  0  0  0  0  0  0  0  0  0  0  0
    0.4763   -0.1833    0.0000 C   0  0  1  0  0  0  0  0  0  0  0  0
    1.1908    0.2292    0.0000 C   0  0  0  0  0  0  0  0  0  0  0  0
    1.1908    1.0542    0.0000 O   0  0  0  0  0  0  0  0  0  0  0  0
   -2.3816   -0.1833    0.0000 N   0  0  0  0  0  0  0  0  0  0  0  0
    0.4763   -1.0083    0.0000 N   0  0  0  0  0  0  0  0  0  0  0  0
    1.9053   -0.1833    0.0000 O   0  0  0  0  0  0  0  0  0  0  0  0
  2  1  1  0  0  0  0
  3  2  1  0  0  0  0
  4  3  1  0  0  0  0
  5  4  1  0  0  0  0
  6  5  2  0  0  0  0
  7  1  1  0  0  0  0
  4  8  1  1  0  0  0
  9  5  1  0  0  0  0
M  END
> <DATABASE_ID>
DB00129

> <DATABASE_NAME>
drugbank

> <SMILES>
NCCC[C@H](N)C(O)=O

> <INCHI_IDENTIFIER>
InChI=1S/C5H12N2O2/c6-3-1-2-4(7)5(8)9/h4H,1-3,6-7H2,(H,8,9)/t4-/m0/s1

> <INCHI_KEY>
AHLPHDHHMVZTML-BYPYZUCNSA-N

> <FORMULA>
C5H12N2O2

> <MOLECULAR_WEIGHT>
132.161

> <EXACT_MASS>
132.089877638

> <JCHEM_ACCEPTOR_COUNT>
4

> <JCHEM_AVERAGE_POLARIZABILITY>
13.853261407645917

> <JCHEM_BIOAVAILABILITY>
1

> <JCHEM_DONOR_COUNT>
3

> <JCHEM_FORMAL_CHARGE>
0

> <JCHEM_GHOSE_FILTER>
0

> <JCHEM_IUPAC>
(2S)-2,5-diaminopentanoic acid

> <ALOGPS_LOGP>
-3.64

> <JCHEM_LOGP>
-3.6582876081320586

> <ALOGPS_LOGS>
0.11

> <JCHEM_MDDR_LIKE_RULE>
0

> <JCHEM_NUMBER_OF_RINGS>
0

> <JCHEM_PHYSIOLOGICAL_CHARGE>
1

> <JCHEM_PKA_STRONGEST_ACIDIC>
2.666422703275891

> <JCHEM_PKA_STRONGEST_BASIC>
10.2868213384358

> <JCHEM_POLAR_SURFACE_AREA>
89.34

> <JCHEM_REFRACTIVITY>
33.20850000000001

> <JCHEM_ROTATABLE_BOND_COUNT>
4

> <JCHEM_RULE_OF_FIVE>
1

> <ALOGPS_SOLUBILITY>
1.72e+02 g/l

> <JCHEM_TRADITIONAL_IUPAC>
ornithine

> <JCHEM_VEBER_RULE>
0

> <DRUGBANK_ID>
DB00129

> <SECONDARY_ACCESSION_NUMBERS>
NUTR00043

> <DRUG_GROUPS>
approved; nutraceutical

> <GENERIC_NAME>
Ornithine

> <SYNONYMS>
(S)-2,5-Diaminopentanoate; (S)-2,5-Diaminopentanoic acid; (S)-2,5-diaminovaleric acid; (S)-ornithine; (S)-α,δ-diaminovaleric acid; L-Ornithine; levo-ornithine; Ornithine; Ornithinum; Ornitina

> <PRODUCTS>
Primene; Primene 10%; Primene 10%-liq IV

> <SALTS>
Ornithine aspartate; Ornithine dihydrochloride; Ornithine hydrochloride; Ornithine oxoglurate

$$$$

  Mrv0541 09081312232D          

 10  9  0  0  1  0            999 V2000
   -2.1434   -0.1768    0.0000 N   0  0  0  0  0  0  0  0  0  0  0  0
   -1.4289    0.2357    0.0000 C   0  0  0  0  0  0  0  0  0  0  0  0
    1.4289    0.2357    0.0000 C   0  0  0  0  0  0  0  0  0  0  0  0
    2.1434   -0.1768    0.0000 O   0  0  0  0  0  0  0  0  0  0  0  0
    0.7145   -0.1768    0.0000 C   0  0  2  0  0  0  0  0  0  0  0  0
    0.0000    0.2357    0.0000 C   0  0  0  0  0  0  0  0  0  0  0  0
   -0.7145   -0.1768    0.0000 C   0  0  0  0  0  0  0  0  0  0  0  0
    1.4289    1.0606    0.0000 O   0  0  0  0  0  0  0  0  0  0  0  0
    0.7144   -1.0018    0.0000 N   0  0  0  0  0  0  0  0  0  0  0  0
   -1.4290    1.0607    0.0000 O   0  0  0  0  0  0  0  0  0  0  0  0
  1  2  1  0  0  0  0
 10  2  2  0  0  0  0
  3  8  2  0  0  0  0
  4  3  1  0  0  0  0
  5  3  1  0  0  0  0
  5  9  1  1  0  0  0
  6  5  1  0  0  0  0
  7  2  1  0  0  0  0
  7  6  1  0  0  0  0
M  END
> <DATABASE_ID>
DB00130

> <DATABASE_NAME>
drugbank

> <SMILES>
N[C@@H](CCC(N)=O)C(O)=O

> <INCHI_IDENTIFIER>
InChI=1S/C5H10N2O3/c6-3(5(9)10)1-2-4(7)8/h3H,1-2,6H2,(H2,7,8)(H,9,10)/t3-/m0/s1

> <INCHI_KEY>
ZDXPYRJPNDTMRX-VKHMYHEASA-N

> <FORMULA>
C5H10N2O3

> <MOLECULAR_WEIGHT>
146.1445

> <EXACT_MASS>
146.069142196

> <JCHEM_ACCEPTOR_COUNT>
4

> <JCHEM_AVERAGE_POLARIZABILITY>
13.868279050213303

> <JCHEM_BIOAVAILABILITY>
1

> <JCHEM_DONOR_COUNT>
3

> <JCHEM_FORMAL_CHARGE>
0

> <JCHEM_GHOSE_FILTER>
0

> <JCHEM_IUPAC>
(2S)-2-amino-4-carbamoylbutanoic acid

> <ALOGPS_LOGP>
-3.32

> <JCHEM_LOGP>
-4.001133427477374

> <ALOGPS_LOGS>
-0.17

> <JCHEM_MDDR_LIKE_RULE>
0

> <JCHEM_NUMBER_OF_RINGS>
0

> <JCHEM_PHYSIOLOGICAL_CHARGE>
0

> <JCHEM_PKA>
16.244890833030507

> <JCHEM_PKA_STRONGEST_ACIDIC>
2.1473021419115033

> <JCHEM_PKA_STRONGEST_BASIC>
9.312090619404756

> <JCHEM_POLAR_SURFACE_AREA>
106.41

> <JCHEM_REFRACTIVITY>
33.1099

> <JCHEM_ROTATABLE_BOND_COUNT>
4

> <JCHEM_RULE_OF_FIVE>
1

> <ALOGPS_SOLUBILITY>
9.78e+01 g/l

> <JCHEM_TRADITIONAL_IUPAC>
L-glutamine

> <JCHEM_VEBER_RULE>
0

> <DRUGBANK_ID>
DB00130

> <SECONDARY_ACCESSION_NUMBERS>
NUTR00026

> <DRUG_GROUPS>
approved; investigational; nutraceutical

> <GENERIC_NAME>
L-Glutamine

> <SYNONYMS>
(2S)-2-amino-4-carbamoylbutanoic acid; (2S)-2,5-diamino-5-oxopentanoic acid; (S)-2,5-diamino-5-oxopentanoic acid; Glutamic acid 5-amide; Glutamic acid amide; Glutamina; Glutamine; L-(+)-glutamine; L-2-aminoglutaramic acid; L-glutamic acid γ-amide; L-Glutamin; L-Glutaminsäure-5-amid; Levoglutamide; Q

> <PRODUCTS>
Endari; NutreStore

> <INTERNATIONAL_BRANDS>
Earthlink Science Glutamine Chews Chocolate; Glutamine Express; Glutamine Fuel Mega; Glutamine Fuel Powder ; L-Glutamine Power

> <SALTS>
Glutamine sodium

$$$$
131
  Mrv0541 02231214282D          

 23 25  0  0  1  0            999 V2000
    6.9922    2.1365    0.0000 P   0  0  0  0  0  0  0  0  0  0  0  0
    4.9010    0.6808    0.0000 O   0  0  0  0  0  0  0  0  0  0  0  0
    2.8071    1.0969    0.0000 O   0  0  0  0  0  0  0  0  0  0  0  0
    3.8647    2.5471    0.0000 O   0  0  0  0  0  0  0  0  0  0  0  0
    6.3238    1.6527    0.0000 O   0  0  0  0  0  0  0  0  0  0  0  0
    7.4759    1.4682    0.0000 O   0  0  0  0  0  0  0  0  0  0  0  0
    7.6604    2.6202    0.0000 O   0  0  0  0  0  0  0  0  0  0  0  0
    6.5084    2.8048    0.0000 O   0  0  0  0  0  0  0  0  0  0  0  0
    3.8597   -0.3570    0.0000 N   0  0  0  0  0  0  0  0  0  0  0  0
    3.8597   -1.6848    0.0000 N   0  0  0  0  0  0  0  0  0  0  0  0
    2.3645   -0.1959    0.0000 N   0  0  0  0  0  0  0  0  0  0  0  0
    1.6500   -1.4335    0.0000 N   0  0  0  0  0  0  0  0  0  0  0  0
    2.3645   -2.6710    0.0000 N   0  0  0  0  0  0  0  0  0  0  0  0
    3.6321    1.0955    0.0000 C   0  0  2  0  0  0  0  0  0  0  0  0
    4.1182    1.7621    0.0000 C   0  0  1  0  0  0  0  0  0  0  0  0
    4.1159    0.4272    0.0000 C   0  0  1  0  0  0  0  0  0  0  0  0
    4.9025    1.5058    0.0000 C   0  0  1  0  0  0  0  0  0  0  0  0
    5.5707    1.9896    0.0000 C   0  0  0  0  0  0  0  0  0  0  0  0
    3.0790   -0.6084    0.0000 C   0  0  0  0  0  0  0  0  0  0  0  0
    4.3411   -1.0210    0.0000 C   0  0  0  0  0  0  0  0  0  0  0  0
    3.0790   -1.4335    0.0000 C   0  0  0  0  0  0  0  0  0  0  0  0
    2.3645   -1.8460    0.0000 C   0  0  0  0  0  0  0  0  0  0  0  0
    1.6500   -0.6084    0.0000 C   0  0  0  0  0  0  0  0  0  0  0  0
  1  5  1  0  0  0  0
  1  6  1  0  0  0  0
  1  7  1  0  0  0  0
  1  8  2  0  0  0  0
  2 16  1  0  0  0  0
  2 17  1  0  0  0  0
 14  3  1  6  0  0  0
 15  4  1  6  0  0  0
  5 18  1  0  0  0  0
 16  9  1  1  0  0  0
  9 19  1  0  0  0  0
  9 20  1  0  0  0  0
 10 20  2  0  0  0  0
 10 21  1  0  0  0  0
 11 19  2  0  0  0  0
 11 23  1  0  0  0  0
 12 22  1  0  0  0  0
 12 23  2  0  0  0  0
 13 22  1  0  0  0  0
 14 15  1  0  0  0  0
 14 16  1  0  0  0  0
 15 17  1  0  0  0  0
 17 18  1  1  0  0  0
 19 21  1  0  0  0  0
 21 22  2  0  0  0  0
M  END
> <DATABASE_ID>
DB00131

> <DATABASE_NAME>
drugbank

> <SMILES>
NC1=C2N=CN([C@@H]3O[C@H](COP(O)(O)=O)[C@@H](O)[C@H]3O)C2=NC=N1

> <INCHI_IDENTIFIER>
InChI=1S/C10H14N5O7P/c11-8-5-9(13-2-12-8)15(3-14-5)10-7(17)6(16)4(22-10)1-21-23(18,19)20/h2-4,6-7,10,16-17H,1H2,(H2,11,12,13)(H2,18,19,20)/t4-,6-,7-,10-/m1/s1

> <INCHI_KEY>
UDMBCSSLTHHNCD-KQYNXXCUSA-N

> <FORMULA>
C10H14N5O7P

> <MOLECULAR_WEIGHT>
347.2212

> <EXACT_MASS>
347.063084339

> <JCHEM_ACCEPTOR_COUNT>
10

> <JCHEM_AVERAGE_POLARIZABILITY>
29.99861349032206

> <JCHEM_BIOAVAILABILITY>
1

> <JCHEM_DONOR_COUNT>
5

> <JCHEM_FORMAL_CHARGE>
0

> <JCHEM_GHOSE_FILTER>
0

> <JCHEM_IUPAC>
{[(2R,3S,4R,5R)-5-(6-amino-9H-purin-9-yl)-3,4-dihydroxyoxolan-2-yl]methoxy}phosphonic acid

> <ALOGPS_LOGP>
-3.13

> <JCHEM_LOGP>
-4.788289391565842

> <ALOGPS_LOGS>
-2.02

> <JCHEM_MDDR_LIKE_RULE>
0

> <JCHEM_NUMBER_OF_RINGS>
3

> <JCHEM_PHYSIOLOGICAL_CHARGE>
-2

> <JCHEM_PKA>
6.281813567799993

> <JCHEM_PKA_STRONGEST_ACIDIC>
1.2265723729422926

> <JCHEM_PKA_STRONGEST_BASIC>
4.965390321358218

> <JCHEM_POLAR_SURFACE_AREA>
186.07000000000002

> <JCHEM_REFRACTIVITY>
74.06850000000001

> <JCHEM_ROTATABLE_BOND_COUNT>
4

> <JCHEM_RULE_OF_FIVE>
1

> <ALOGPS_SOLUBILITY>
3.31e+00 g/l

> <JCHEM_TRADITIONAL_IUPAC>
adenylate

> <JCHEM_VEBER_RULE>
0

> <DRUGBANK_ID>
DB00131

> <SECONDARY_ACCESSION_NUMBERS>
NUTR00011; EXPT00512

> <DRUG_GROUPS>
approved; investigational; nutraceutical

> <GENERIC_NAME>
Adenosine phosphate

> <SYNONYMS>
5'-Adenosine monophosphate; 5'-Adenylic acid; 5'-AMP; 5'-O-Phosphonoadenosine; Adenosine 5'-(dihydrogen phosphate); Adenosine 5'-monophosphate; Adenosine 5'-phosphate; Adenosine monophosphate; Adenosine phosphate; Adenosine-5'-Monophosphate; Adenosine-5'-monophosphoric acid; Adenosine-5'P; Adenosini phosphas; Adenylate; Adenylic acid; Ado5'P; AMP; Fosfato de adenosina; PAdo; Phosphate d'adénosine

> <INTERNATIONAL_BRANDS>
My-B-Den

$$$$
132
  Mrv0541 02231214282D          

 20 19  0  0  0  0            999 V2000
    2.3645    3.2217    0.0000 O   0  0  0  0  0  0  0  0  0  0  0  0
    1.6500    1.9842    0.0000 O   0  0  0  0  0  0  0  0  0  0  0  0
    3.7935   -0.0784    0.0000 C   0  0  0  0  0  0  0  0  0  0  0  0
    4.5080   -0.4909    0.0000 C   0  0  0  0  0  0  0  0  0  0  0  0
    3.7935    0.7466    0.0000 C   0  0  0  0  0  0  0  0  0  0  0  0
    4.5080   -1.3159    0.0000 C   0  0  0  0  0  0  0  0  0  0  0  0
    3.0791    1.1592    0.0000 C   0  0  0  0  0  0  0  0  0  0  0  0
    5.2224   -1.7284    0.0000 C   0  0  0  0  0  0  0  0  0  0  0  0
    3.0791    1.9842    0.0000 C   0  0  0  0  0  0  0  0  0  0  0  0
    5.2224   -2.5534    0.0000 C   0  0  0  0  0  0  0  0  0  0  0  0
    2.3645    2.3967    0.0000 C   0  0  0  0  0  0  0  0  0  0  0  0
    5.9370   -2.9659    0.0000 C   0  0  0  0  0  0  0  0  0  0  0  0
    6.6515   -2.5534    0.0000 C   0  0  0  0  0  0  0  0  0  0  0  0
    7.3659   -2.9659    0.0000 C   0  0  0  0  0  0  0  0  0  0  0  0
    8.0804   -2.5534    0.0000 C   0  0  0  0  0  0  0  0  0  0  0  0
    8.0804   -1.7284    0.0000 C   0  0  0  0  0  0  0  0  0  0  0  0
    8.7949   -1.3159    0.0000 C   0  0  0  0  0  0  0  0  0  0  0  0
    8.7949   -0.4909    0.0000 C   0  0  0  0  0  0  0  0  0  0  0  0
    8.0804   -0.0784    0.0000 C   0  0  0  0  0  0  0  0  0  0  0  0
    8.0804    0.7466    0.0000 C   0  0  0  0  0  0  0  0  0  0  0  0
  1 11  1  0  0  0  0
  2 11  2  0  0  0  0
  3  4  1  0  0  0  0
  3  5  1  0  0  0  0
  4  6  1  0  0  0  0
  5  7  1  0  0  0  0
  6  8  1  0  0  0  0
  7  9  1  0  0  0  0
  8 10  1  0  0  0  0
  9 11  1  0  0  0  0
 10 12  2  0  0  0  0
 12 13  1  0  0  0  0
 13 14  1  0  0  0  0
 14 15  2  0  0  0  0
 15 16  1  0  0  0  0
 16 17  1  0  0  0  0
 17 18  2  0  0  0  0
 18 19  1  0  0  0  0
 19 20  1  0  0  0  0
M  END
> <DATABASE_ID>
DB00132

> <DATABASE_NAME>
drugbank

> <SMILES>
CC\C=C/C\C=C/C\C=C/CCCCCCCC(O)=O

> <INCHI_IDENTIFIER>
InChI=1S/C18H30O2/c1-2-3-4-5-6-7-8-9-10-11-12-13-14-15-16-17-18(19)20/h3-4,6-7,9-10H,2,5,8,11-17H2,1H3,(H,19,20)/b4-3-,7-6-,10-9-

> <INCHI_KEY>
DTOSIQBPPRVQHS-PDBXOOCHSA-N

> <FORMULA>
C18H30O2

> <MOLECULAR_WEIGHT>
278.4296

> <EXACT_MASS>
278.224580204

> <JCHEM_ACCEPTOR_COUNT>
2

> <JCHEM_AVERAGE_POLARIZABILITY>
34.980361006818654

> <JCHEM_BIOAVAILABILITY>
0

> <JCHEM_DONOR_COUNT>
1

> <JCHEM_FORMAL_CHARGE>
0

> <JCHEM_GHOSE_FILTER>
0

> <JCHEM_IUPAC>
(9Z,12Z,15Z)-octadeca-9,12,15-trienoic acid

> <ALOGPS_LOGP>
6.62

> <JCHEM_LOGP>
6.059955137666666

> <ALOGPS_LOGS>
-6.02

> <JCHEM_MDDR_LIKE_RULE>
0

> <JCHEM_NUMBER_OF_RINGS>
0

> <JCHEM_PHYSIOLOGICAL_CHARGE>
-1

> <JCHEM_PKA_STRONGEST_ACIDIC>
4.988167283903808

> <JCHEM_POLAR_SURFACE_AREA>
37.3

> <JCHEM_REFRACTIVITY>
89.6354

> <JCHEM_ROTATABLE_BOND_COUNT>
13

> <JCHEM_RULE_OF_FIVE>
0

> <ALOGPS_SOLUBILITY>
2.66e-04 g/l

> <JCHEM_TRADITIONAL_IUPAC>
α linolenic acid

> <JCHEM_VEBER_RULE>
0

> <DRUGBANK_ID>
DB00132

> <SECONDARY_ACCESSION_NUMBERS>
NUTR00034

> <DRUG_GROUPS>
approved; investigational; nutraceutical

> <GENERIC_NAME>
alpha-Linolenic acid

> <SYNONYMS>
(9,12,15)-linolenic acid; (9Z,12Z,15Z)-Octadecatrienoic acid; (Z,Z,Z)-9,12,15-octadecatrienoic acid; 9-cis,12-cis,15-cis-octadecatrienoic acid; 9,12,15-Octadecatrienoic acid; ALA; all-cis-9,12,15-Octadecatrienoic acid; alpha-Linolenic acid; cis-delta(9,12,15)-Octadecatrienoic acid; cis,cis,cis-9,12,15-Octadecatrienoic acid; Linolenic acid; α-linolenic acid

> <PRODUCTS>
Advanced AM PM; Bio-efa Borage Gla 90 Cap; Cavan One; Flaxseed Oil Capsules; Folcaps Care One; Folcaps Omega-3; HemeNatal OB plus DHA; Huile D'onagre Vitamin E; UltimateCare ONE NF

$$$$

  Mrv1909 11291917082D          

  7  6  0  0  0  0            999 V2000
    0.7145    0.2062    0.0000 C   0  0  0  0  0  0  0  0  0  0  0  0
    0.0000   -0.2062    0.0000 C   0  0  2  0  0  0  0  0  0  0  0  0
   -0.7145    0.2062    0.0000 C   0  0  0  0  0  0  0  0  0  0  0  0
    1.4291   -0.2062    0.0000 O   0  0  0  0  0  0  0  0  0  0  0  0
    0.7145    1.0313    0.0000 O   0  0  0  0  0  0  0  0  0  0  0  0
    0.0000   -1.0313    0.0000 N   0  0  0  0  0  0  0  0  0  0  0  0
   -1.4291   -0.2062    0.0000 O   0  0  0  0  0  0  0  0  0  0  0  0
  2  1  1  0  0  0  0
  5  1  2  0  0  0  0
  4  1  1  0  0  0  0
  3  2  1  0  0  0  0
  2  6  1  1  0  0  0
  7  3  1  0  0  0  0
M  END
> <DATABASE_ID>
DB00133

> <DATABASE_NAME>
drugbank

> <SMILES>
N[C@@H](CO)C(O)=O

> <INCHI_IDENTIFIER>
InChI=1S/C3H7NO3/c4-2(1-5)3(6)7/h2,5H,1,4H2,(H,6,7)/t2-/m0/s1

> <INCHI_KEY>
MTCFGRXMJLQNBG-REOHCLBHSA-N

> <FORMULA>
C3H7NO3

> <MOLECULAR_WEIGHT>
105.0926

> <EXACT_MASS>
105.042593095

> <JCHEM_ACCEPTOR_COUNT>
4

> <JCHEM_ATOM_COUNT>
14

> <JCHEM_AVERAGE_POLARIZABILITY>
9.386631521233841

> <JCHEM_BIOAVAILABILITY>
1

> <JCHEM_DONOR_COUNT>
3

> <JCHEM_FORMAL_CHARGE>
0

> <JCHEM_GHOSE_FILTER>
0

> <JCHEM_IUPAC>
(2S)-2-amino-3-hydroxypropanoic acid

> <ALOGPS_LOGP>
-3.42

> <JCHEM_LOGP>
-3.8877352328917727

> <ALOGPS_LOGS>
0.66

> <JCHEM_MDDR_LIKE_RULE>
0

> <JCHEM_NUMBER_OF_RINGS>
0

> <JCHEM_PHYSIOLOGICAL_CHARGE>
0

> <JCHEM_PKA>
15.166073878847005

> <JCHEM_PKA_STRONGEST_ACIDIC>
2.033990015469951

> <JCHEM_PKA_STRONGEST_BASIC>
8.931303956589883

> <JCHEM_POLAR_SURFACE_AREA>
83.55

> <JCHEM_REFRACTIVITY>
22.040999999999997

> <JCHEM_ROTATABLE_BOND_COUNT>
2

> <JCHEM_RULE_OF_FIVE>
1

> <ALOGPS_SOLUBILITY>
4.80e+02 g/l

> <JCHEM_TRADITIONAL_IUPAC>
palladium(2+) (4S,5S,14R,15R)-10-acetyl-4-(2-carboxyethyl)-15-ethyl-2-(2-methoxy-2-oxoethyl)-5,9,14,19-tetramethyl-20-[(2-sulfoethyl)carbamoyl]-21,22,23,24-tetraazapentacyclo[16.2.1.1^{3,6}.1^{8,11}.1^{13,16}]tetracosa-1,3(24),6,8,10,12,16(22),17,19-nonaene-21,23-diide

> <JCHEM_VEBER_RULE>
0

> <DRUGBANK_ID>
DB00133

> <SECONDARY_ACCESSION_NUMBERS>
NUTR00053; DB03375

> <DRUG_GROUPS>
investigational; nutraceutical

> <GENERIC_NAME>
Serine

> <SYNONYMS>
(S)-2-Amino-3-hydroxypropanoic acid; (S)-Serine; alpha-Amino-beta-hydroxypropionic acid; beta-Hydroxyalanine; L-Serine; Ser; Serina; Serine; Serinum

> <PRODUCTS>
2.5% Travasol Amino Acid Injection With Electrolytes In 10% Dextrose; 2.5%travasol Amino Acid InJ.W.eleC.W.25%dex; 2.75% Travas. Amino Acid InJ.W.elecw.25%dex; 2.75%travasol Amino Acid InJ.W.eleC.W.5%dex.; 20% Prosol; 4.25% Travasol Amino Acid Injection With Electrolytes In 10% Dextrose; 4.25% Travasol Amino Acid Injection With Electrolytes In 20% Dextrose; 4.25% Travasol Amino Acid Injection With Electrolytes In 25% Dextrose; 4.25% Travasol Amino Acid Injection Without Electrlytes In 10% Dextrose; 4.25% Travasol Amino Acid Injection Without Electrolytes In 20% Dextrose; 4.25% Travasol Amino Acid Injection Without Electrolytes In 25% Dextrose; 4.25%trav. Amino Acid InJ.W.O.elect.5%dext.; 4.25%travasol Amino Acid InJ.W.elecw.5%dex.; 5% Travasol Amino Acid Injection With Electrolytes In 20% Dextrose; 5% Travasol Amino Acid Injection Without Electrolytes In 20% Dextrose; 5% Travasol Amino Acid Injection Without Electrolytes In 25% Dextrose; 8.5% Freamine III; Aminosyn; Aminosyn 10% W Electrolytes; Aminosyn 3.5% M; Aminosyn 5%; Aminosyn 7%; Aminosyn 8.5%; Aminosyn 8.5% Injection With Electrolytes; Aminosyn HF; Aminosyn II; Aminosyn II 10% With Electrolytes; Aminosyn II 5% Inj; Aminosyn II 7% Injection; Aminosyn II 7% M In 10% Dextrose(dual Chamber); Aminosyn II 7% With 10% Dextrose; Aminosyn II 7% With 50% Dextrose; Aminosyn II 8.5% Injection; Aminosyn II 8.5% M In 20% Dextrose (dual Chamber); Aminosyn II 8.5% With 50% Dextrose; Aminosyn II In Dextrose Injection; Aminosyn II and Dextrose; Aminosyn II in Dextrose; Aminosyn II with Electrolytes; Aminosyn II with Electrolytes in Dextrose with Calcium; Aminosyn Sulfite Free; Aminosyn-PF; Aminosyn-PF 10%; Aminosyn-PF 7%; Clinimix; Clinimix 2.5% Travasol Aa Without Electrolytes In 10% Dextrose Injec; Clinimix E; Clinisol; FreAmine HBC; FreAmine III; HepatAmine; Hepatasol; Kabiven; Novamine; Nutrineal Pd4; Olimel 3.3% E; Olimel 4.4%; Olimel 4.4% E; Olimel 5.7%; Olimel 5.7% E; Olimel 7.6%; Olimel 7.6% E; Perikabiven; Periolimel 2.5% E; Plenamine; Premasol - sulfite-free (Amino Acid); Primene; Primene 10%; Primene 10%-liq IV; ProSol; ProcalAmine; RenAmin; Renamin (amino Acids) Injection; Smofkabiven; Smofkabiven Electrolyte Free; Smofkabiven Extra Nitrogen; Smofkabiven Extra Nitrogen Electrolyte Free; Smofkabiven Peripheral; Synthamin; Travasol; TrophAmine; Vamin 18 Electrolyte-free; Vamin N

$$$$

  Mrv1909 11291917032D          

  9  8  0  0  0  0            999 V2000
    1.4289    1.0312    0.0000 O   0  0  0  0  0  0  0  0  0  0  0  0
    1.4289    0.2062    0.0000 C   0  0  0  0  0  0  0  0  0  0  0  0
    2.1434   -0.2062    0.0000 O   0  0  0  0  0  0  0  0  0  0  0  0
    0.7144   -0.2062    0.0000 C   0  0  1  0  0  0  0  0  0  0  0  0
    0.7144   -1.0312    0.0000 N   0  0  0  0  0  0  0  0  0  0  0  0
    0.0000    0.2062    0.0000 C   0  0  0  0  0  0  0  0  0  0  0  0
   -0.7144   -0.2062    0.0000 C   0  0  0  0  0  0  0  0  0  0  0  0
   -1.4289    0.2062    0.0000 S   0  0  0  0  0  0  0  0  0  0  0  0
   -2.1434   -0.2062    0.0000 C   0  0  0  0  0  0  0  0  0  0  0  0
  2  1  2  0  0  0  0
  3  2  1  0  0  0  0
  4  2  1  0  0  0  0
  4  5  1  1  0  0  0
  6  4  1  0  0  0  0
  7  6  1  0  0  0  0
  8  7  1  0  0  0  0
  9  8  1  0  0  0  0
M  END
> <DATABASE_ID>
DB00134

> <DATABASE_NAME>
drugbank

> <SMILES>
CSCC[C@H](N)C(O)=O

> <INCHI_IDENTIFIER>
InChI=1S/C5H11NO2S/c1-9-3-2-4(6)5(7)8/h4H,2-3,6H2,1H3,(H,7,8)/t4-/m0/s1

> <INCHI_KEY>
FFEARJCKVFRZRR-BYPYZUCNSA-N

> <FORMULA>
C5H11NO2S

> <MOLECULAR_WEIGHT>
149.211

> <EXACT_MASS>
149.051049291

> <JCHEM_ACCEPTOR_COUNT>
3

> <JCHEM_ATOM_COUNT>
20

> <JCHEM_AVERAGE_POLARIZABILITY>
15.504513637142049

> <JCHEM_BIOAVAILABILITY>
1

> <JCHEM_DONOR_COUNT>
2

> <JCHEM_FORMAL_CHARGE>
0

> <JCHEM_GHOSE_FILTER>
0

> <JCHEM_IUPAC>
(2S)-2-amino-4-(methylsulfanyl)butanoic acid

> <ALOGPS_LOGP>
-1.85

> <JCHEM_LOGP>
-2.189326616871282

> <ALOGPS_LOGS>
-0.80

> <JCHEM_MDDR_LIKE_RULE>
0

> <JCHEM_NUMBER_OF_RINGS>
0

> <JCHEM_PHYSIOLOGICAL_CHARGE>
0

> <JCHEM_PKA_STRONGEST_ACIDIC>
2.5319210041042344

> <JCHEM_PKA_STRONGEST_BASIC>
9.502323343916569

> <JCHEM_POLAR_SURFACE_AREA>
63.31999999999999

> <JCHEM_REFRACTIVITY>
37.586000000000006

> <JCHEM_ROTATABLE_BOND_COUNT>
4

> <JCHEM_RULE_OF_FIVE>
1

> <ALOGPS_SOLUBILITY>
2.39e+01 g/l

> <JCHEM_TRADITIONAL_IUPAC>
palladium(2+) (4S,5S,14R,15R)-10-acetyl-4-(2-carboxyethyl)-15-ethyl-2-(2-methoxy-2-oxoethyl)-5,9,14,19-tetramethyl-20-[(2-sulfoethyl)carbamoyl]-21,22,23,24-tetraazapentacyclo[16.2.1.1^{3,6}.1^{8,11}.1^{13,16}]tetracosa-1,3(24),6,8,10,12,16(22),17,19-nonaene-21,23-diide

> <JCHEM_VEBER_RULE>
0

> <DRUGBANK_ID>
DB00134

> <SECONDARY_ACCESSION_NUMBERS>
NUTR00038

> <DRUG_GROUPS>
approved; nutraceutical

> <GENERIC_NAME>
Methionine

> <SYNONYMS>
(2S)-2-amino-4-(methylsulfanyl)butanoic acid; (S)-2-amino-4-(methylthio)butanoic acid; (S)-2-amino-4-(methylthio)butyric acid; (S)-methionine; L-(−)-methionine; L-a-Amino-g-methylthiobutyric acid; L-Methionin; L-Methionine; L-α-amino-γ-methylmercaptobutyric acid; M; Met; Methionine

> <PRODUCTS>
2.5% Travasol Amino Acid Injection With Electrolytes In 10% Dextrose; 2.5% Travasol Amino Acid Injection With Electrolytes In 10% Dextrose Clinimix; 2.5% Travasol Amino Acid Injection Without Electrolytes In 10% Dextrose Quickmix; 2.5%travasol Amino Acid InJ.W.eleC.W.25%dex; 2.75% Travas. Amino Acid InJ.W.elecw.25%dex; 2.75% Travasol Amino Acid Injection With Electrolytes In 25% Dextrose Quickmix; 2.75% Travasol Amino Acid Injection With Electrolytes In 5% Dextrose Quickmix; 2.75%travasol Amino Acid InJ.W.eleC.W.5%dex.; 20% Prosol; 4.25% Amino Acid Injection Without Electrolytes In 20% Dextrose Quickmix; 4.25% Travasol Amino Acid Injection With Electrolytes In 10% Dextrose; 4.25% Travasol Amino Acid Injection With Electrolytes In 20% Dextrose; 4.25% Travasol Amino Acid Injection With Electrolytes In 20% Dextrose Quickmix; 4.25% Travasol Amino Acid Injection With Electrolytes In 25% Dextrose; 4.25% Travasol Amino Acid Injection With Electrolytes In 5% Dextrose Quickmix; 4.25% Travasol Amino Acid Injection Without Electrlytes In 10% Dextrose; 4.25% Travasol Amino Acid Injection Without Electrolytes In 20% Dextrose; 4.25% Travasol Amino Acid Injection Without Electrolytes In 25% Dextrose; 4.25% Travasol Amino Acid Without Electrolytes In 5% Dextrose Quickmix; 4.25%trav. Amino Acid InJ.W.O.elect.5%dext.; 4.25%travasol Amino Acid InJ.W.elecw.5%dex.; 5% Travasol Amino Acid Injection With Electrolytes In 20% Dextrose; 5% Travasol Amino Acid Injection Without Electrolytes In 20% Dextrose; 5% Travasol Amino Acid Injection Without Electrolytes In 25% Dextrose; Aminosyn; Aminosyn 10% W Electrolytes; Aminosyn 3.5% M; Aminosyn 5%; Aminosyn 7%; Aminosyn 8.5%; Aminosyn 8.5% Injection With Electrolytes; Aminosyn HF; Aminosyn II; Aminosyn II 10% With Electrolytes; Aminosyn II 5% Inj; Aminosyn II 7% Injection; Aminosyn II 7% M In 10% Dextrose(dual Chamber); Aminosyn II 7% With 10% Dextrose; Aminosyn II 7% With 50% Dextrose; Aminosyn II 8.5% Injection; Aminosyn II 8.5% M In 20% Dextrose (dual Chamber); Aminosyn II 8.5% With 50% Dextrose; Aminosyn II In Dextrose Injection; Aminosyn II and Dextrose; Aminosyn II in Dextrose; Aminosyn II with Electrolytes; Aminosyn II with Electrolytes in Dextrose with Calcium; Aminosyn RF; Aminosyn RF Injection; Aminosyn Sulfite Free; Aminosyn-PF; Aminosyn-PF 10%; Aminosyn-PF 7%; BANACOCica-aid Centella Peptide emulsion; BANACOS Cica-aid Centella Peptide toner; Clinimix; Clinimix 2.5% Travasol Aa Without Electrolytes In 10% Dextrose Injec; Clinimix E; Clinisol; Derma-force; Distilpure Msm; Formula Cm; Formula Cw; Formula Cw-caplet; FreAmine HBC; FreAmine III; HepatAmine; Hepatasol; Inhibitol - Tab; Kabiven; Medi Msm (methyl Sulfonyl Methane); Men's Biomultiple Vitamin and Mineral Supplement; NephrAmine; Novamine; Nutrineal Pd4; Olimel 3.3% E; Olimel 4.4%; Olimel 4.4% E; Olimel 5.7%; Olimel 5.7% E; Olimel 7.6%; Olimel 7.6% E; Perikabiven; Periolimel 2.5% E; Plenamine; Premasol - sulfite-free (Amino Acid); Primene; Primene 10%; Primene 10%-liq IV; ProSol; ProcalAmine; Quick Mix 2.5% Travasol Aa With Electrolytes With 25% Dextrose Injec; RenAmin; Renamin (amino Acids) Injection; Selenium Plus; Smofkabiven; Smofkabiven Electrolyte Free; Smofkabiven Extra Nitrogen; Smofkabiven Extra Nitrogen Electrolyte Free; Smofkabiven Peripheral; Synthamin; Travasol; Travasol Amino Acid Inj 5.5%; Travasol Amino Acid Inj 8.5%; Travasol E; Travasol Inj Without Electrolytes 5.5%; TrophAmine; Vamin 18 Electrolyte-free; Vamin N; Women's Biomultiple Vitamin and Mineral Supplement

> <INTERNATIONAL_BRANDS>
Acimethin

> <SALTS>
Methionine hydrochloride

$$$$

  Mrv1909 07102021182D          

 14 14  0  0  0  0            999 V2000
    1.4289   -0.0000    0.0000 C   0  0  0  0  0  0  0  0  0  0  0  0
    0.0000   -0.0000    0.0000 C   0  0  0  0  0  0  0  0  0  0  0  0
    1.4289    0.8250    0.0000 C   0  0  0  0  0  0  0  0  0  0  0  0
    0.0000    0.8250    0.0000 C   0  0  0  0  0  0  0  0  0  0  0  0
    0.7145   -1.2375    0.0000 C   0  0  0  0  0  0  0  0  0  0  0  0
    0.7145   -0.4125    0.0000 C   0  0  0  0  0  0  0  0  0  0  0  0
    0.7145    1.2375    0.0000 C   0  0  0  0  0  0  0  0  0  0  0  0
    1.4289   -1.6500    0.0000 C   0  0  1  0  0  0  0  0  0  0  0  0
    1.4289   -2.4750    0.0000 C   0  0  0  0  0  0  0  0  0  0  0  0
    2.1434   -1.2375    0.0000 N   0  0  0  0  0  0  0  0  0  0  0  0
    0.7145    2.0625    0.0000 O   0  0  0  0  0  0  0  0  0  0  0  0
    2.1434   -2.8875    0.0000 O   0  0  0  0  0  0  0  0  0  0  0  0
    0.7145   -2.8875    0.0000 O   0  0  0  0  0  0  0  0  0  0  0  0
    0.7145   -2.0625    0.0000 H   0  0  0  0  0  0  0  0  0  0  0  0
  3  1  1  0  0  0  0
  4  2  2  0  0  0  0
  6  1  2  0  0  0  0
  6  2  1  0  0  0  0
  6  5  1  0  0  0  0
  7  3  2  0  0  0  0
  7  4  1  0  0  0  0
  8  5  1  0  0  0  0
  8  9  1  0  0  0  0
  8 10  1  0  0  0  0
 11  7  1  0  0  0  0
 12  9  2  0  0  0  0
 13  9  1  0  0  0  0
  8 14  1  1  0  0  0
M  END
> <DATABASE_ID>
DB00135

> <DATABASE_NAME>
drugbank

> <SMILES>
[H][C@](N)(CC1=CC=C(O)C=C1)C(O)=O

> <INCHI_IDENTIFIER>
InChI=1S/C9H11NO3/c10-8(9(12)13)5-6-1-3-7(11)4-2-6/h1-4,8,11H,5,10H2,(H,12,13)/t8-/m0/s1

> <INCHI_KEY>
OUYCCCASQSFEME-QMMMGPOBSA-N

> <FORMULA>
C9H11NO3

> <MOLECULAR_WEIGHT>
181.1885

> <EXACT_MASS>
181.073893223

> <JCHEM_ACCEPTOR_COUNT>
4

> <JCHEM_ATOM_COUNT>
24

> <JCHEM_AVERAGE_NEUTRAL_MICROSPECIES_CHARGE>
-0.009593146209001091

> <JCHEM_AVERAGE_POLARIZABILITY>
18.115446526423174

> <JCHEM_BIOAVAILABILITY>
1

> <JCHEM_DONOR_COUNT>
3

> <JCHEM_FORMAL_CHARGE>
0

> <JCHEM_GHOSE_FILTER>
0

> <JCHEM_IUPAC>
(2S)-2-amino-3-(4-hydroxyphenyl)propanoic acid

> <ALOGPS_LOGP>
-2.39

> <JCHEM_LOGP>
-1.4885940366836234

> <ALOGPS_LOGS>
-1.37

> <JCHEM_MDDR_LIKE_RULE>
0

> <JCHEM_NEUTRAL_CHARGE>
0

> <JCHEM_NUMBER_OF_RINGS>
1

> <JCHEM_PHYSIOLOGICAL_CHARGE>
0

> <JCHEM_PKA>
9.792157836784154

> <JCHEM_PKA_STRONGEST_ACIDIC>
1.9998472511533614

> <JCHEM_PKA_STRONGEST_BASIC>
9.185299922384795

> <JCHEM_POLAR_SURFACE_AREA>
83.55

> <JCHEM_REFRACTIVITY>
47.0972

> <JCHEM_ROTATABLE_BOND_COUNT>
3

> <JCHEM_RULE_OF_FIVE>
1

> <ALOGPS_SOLUBILITY>
7.67e+00 g/l

> <JCHEM_TRADITIONAL_IUPAC>
ethane

> <JCHEM_VEBER_RULE>
0

> <DRUGBANK_ID>
DB00135

> <SECONDARY_ACCESSION_NUMBERS>
NUTR00059

> <DRUG_GROUPS>
approved; investigational; nutraceutical

> <GENERIC_NAME>
Tyrosine

> <SYNONYMS>
(−)-α-amino-p-hydroxyhydrocinnamic acid; (2S)-2-amino-3-(4-hydroxyphenyl)propanoic acid; (S)-(-)-Tyrosine; (S)-2-Amino-3-(p-hydroxyphenyl)propionic acid; (S)-3-(p-Hydroxyphenyl)alanine; (S)-alpha-amino-4-Hydroxybenzenepropanoic acid; (S)-Tyrosine; (S)-α-amino-4-hydroxybenzenepropanoic acid; 4-hydroxy-L-phenylalanine; L-Tyrosin; L-tyrosine; Tirosina; Tyr; Tyrosine; Tyrosinum; Y

> <PRODUCTS>
2.5% Travasol Amino Acid Injection With Electrolytes In 10% Dextrose; 2.5% Travasol Amino Acid Injection With Electrolytes In 10% Dextrose Clinimix; 2.5% Travasol Amino Acid Injection Without Electrolytes In 10% Dextrose Quickmix; 2.5%travasol Amino Acid InJ.W.eleC.W.25%dex; 2.75% Travas. Amino Acid InJ.W.elecw.25%dex; 2.75% Travasol Amino Acid Injection With Electrolytes In 25% Dextrose Quickmix; 2.75% Travasol Amino Acid Injection With Electrolytes In 5% Dextrose Quickmix; 2.75%travasol Amino Acid InJ.W.eleC.W.5%dex.; 20% Prosol; 4.25% Amino Acid Injection Without Electrolytes In 20% Dextrose Quickmix; 4.25% Travasol Amino Acid Injection With Electrolytes In 10% Dextrose; 4.25% Travasol Amino Acid Injection With Electrolytes In 20% Dextrose; 4.25% Travasol Amino Acid Injection With Electrolytes In 20% Dextrose Quickmix; 4.25% Travasol Amino Acid Injection With Electrolytes In 25% Dextrose; 4.25% Travasol Amino Acid Injection With Electrolytes In 5% Dextrose Quickmix; 4.25% Travasol Amino Acid Injection Without Electrlytes In 10% Dextrose; 4.25% Travasol Amino Acid Injection Without Electrolytes In 20% Dextrose; 4.25% Travasol Amino Acid Injection Without Electrolytes In 25% Dextrose; 4.25% Travasol Amino Acid Without Electrolytes In 5% Dextrose Quickmix; 4.25%trav. Amino Acid InJ.W.O.elect.5%dext.; 4.25%travasol Amino Acid InJ.W.elecw.5%dex.; 5% Travasol Amino Acid Injection With Electrolytes In 20% Dextrose; 5% Travasol Amino Acid Injection Without Electrolytes In 20% Dextrose; 5% Travasol Amino Acid Injection Without Electrolytes In 25% Dextrose; Aminosyn; Aminosyn 10% W Electrolytes; Aminosyn 3.5% M; Aminosyn 5%; Aminosyn 7%; Aminosyn 8.5%; Aminosyn 8.5% Injection With Electrolytes; Aminosyn Sulfite Free; Aminosyn-PF; Aminosyn-PF 10%; Aminosyn-PF 7%; Appbutamone; Appbutamone-D; Appformin; Appformin-D; Clinimix; Clinimix 2.5% Travasol Aa Without Electrolytes In 10% Dextrose Injec; Clinimix E; Clinisol; Kabiven; Novamine; Nutrineal Pd4; Olimel 3.3% E; Olimel 4.4%; Olimel 4.4% E; Olimel 5.7%; Olimel 5.7% E; Olimel 7.6%; Olimel 7.6% E; Perikabiven; Periolimel 2.5% E; Plenamine; Premasol - sulfite-free (Amino Acid); Primene; Primene 10%; Primene 10%-liq IV; ProSol; Quick Mix 2.5% Travasol Aa With Electrolytes With 25% Dextrose Injec; RenAmin; Renamin (amino Acids) Injection; Smofkabiven; Smofkabiven Electrolyte Free; Smofkabiven Extra Nitrogen; Smofkabiven Extra Nitrogen Electrolyte Free; Smofkabiven Peripheral; Synthamin; Travasol; Travasol Amino Acid Inj 5.5%; Travasol Amino Acid Inj 8.5%; Travasol E; Travasol Inj Without Electrolytes 5.5%; Travasol Inj Without Electrolytes 8.5%; TrophAmine; Vamin 18 Electrolyte-free; Vamin N

$$$$

  Mrv0541 04191212032D          

 32 34  0  0  1  0            999 V2000
   -1.0890    1.2765    0.0000 C   0  0  0  0  0  0  0  0  0  0  0  0
   -1.0890   -0.3735    0.0000 C   0  0  0  0  0  0  0  0  0  0  0  0
    0.4101   -0.2159    0.0000 C   0  0  0  0  0  0  0  0  0  0  0  0
    0.8950    0.4515    0.0000 C   0  0  0  0  0  0  0  0  0  0  0  0
   -1.8035    0.8640    0.0000 C   0  0  0  0  0  0  0  0  0  0  0  0
   -1.0890   -1.1985    0.0000 C   0  0  0  0  0  0  0  0  0  0  0  0
   -1.8035    0.0390    0.0000 C   0  0  0  0  0  0  0  0  0  0  0  0
   -1.8035   -1.6110    0.0000 C   0  0  0  0  0  0  0  0  0  0  0  0
   -1.8035   -2.4360    0.0000 C   0  0  0  0  0  0  0  0  0  0  0  0
   -1.0890   -2.8485    0.0000 C   0  0  0  0  0  0  0  0  0  0  0  0
   -2.5179   -2.8485    0.0000 C   0  0  0  0  0  0  0  0  0  0  0  0
   -0.3745   -2.4360    0.0000 C   0  0  0  0  0  0  0  0  0  0  0  0
   -2.5179   -3.6735    0.0000 C   0  0  2  0  0  0  0  0  0  0  0  0
   -1.8035   -4.0860    0.0000 C   0  0  0  0  0  0  0  0  0  0  0  0
   -3.2324   -4.0860    0.0000 O   0  0  0  0  0  0  0  0  0  0  0  0
   -0.3044    2.3565    0.0000 C   0  0  0  0  0  0  0  0  0  0  0  0
    0.4101    1.9440    0.0000 C   0  0  2  0  0  0  0  0  0  0  0  0
    1.1246    2.3565    0.0000 C   0  0  0  0  0  0  0  0  0  0  0  0
    1.8390    1.9440    0.0000 C   0  0  0  0  0  0  0  0  0  0  0  0
    3.9825    2.3565    0.0000 C   0  0  0  0  0  0  0  0  0  0  0  0
    3.2680    1.1190    0.0000 C   0  0  0  0  0  0  0  0  0  0  0  0
    2.5535    2.3565    0.0000 C   0  0  0  0  0  0  0  0  0  0  0  0
    0.4101    1.1190    0.0000 C   0  0  2  0  0  0  0  0  0  0  0  0
    1.1246    1.5315    0.0000 H   0  0  0  0  0  0  0  0  0  0  0  0
   -0.3745    0.0390    0.0000 C   0  0  2  0  0  0  0  0  0  0  0  0
   -0.3745   -0.7860    0.0000 H   0  0  0  0  0  0  0  0  0  0  0  0
   -0.3745    0.8640    0.0000 C   0  0  2  0  0  0  0  0  0  0  0  0
   -0.3745    1.6890    0.0000 C   0  0  0  0  0  0  0  0  0  0  0  0
    3.2680    1.9440    0.0000 C   0  0  0  0  0  0  0  0  0  0  0  0
    3.9825    1.5315    0.0000 O   0  0  0  0  0  0  0  0  0  0  0  0
   -1.0890   -3.6735    0.0000 C   0  0  2  0  0  0  0  0  0  0  0  0
   -0.3745   -4.0860    0.0000 O   0  0  0  0  0  0  0  0  0  0  0  0
 25 27  1  0  0  0  0
 27 23  1  0  0  0  0
 27  1  1  0  0  0  0
 25  2  1  0  0  0  0
 25  3  1  0  0  0  0
 23  4  1  0  0  0  0
  1  5  1  0  0  0  0
  2  6  2  0  0  0  0
  2  7  1  0  0  0  0
  6  8  1  0  0  0  0
  8  9  2  0  0  0  0
  9 10  1  0  0  0  0
  9 11  1  0  0  0  0
 10 31  1  0  0  0  0
 10 12  2  0  0  0  0
 11 13  1  0  0  0  0
 31 14  1  0  0  0  0
 13 15  1  6  0  0  0
  3  4  1  0  0  0  0
  5  7  1  0  0  0  0
 13 14  1  0  0  0  0
 23 17  1  0  0  0  0
 17 16  1  6  0  0  0
 17 18  1  0  0  0  0
 18 19  1  0  0  0  0
 19 22  1  0  0  0  0
 22 29  1  0  0  0  0
 29 20  1  0  0  0  0
 29 21  1  0  0  0  0
 23 24  1  6  0  0  0
 25 26  1  6  0  0  0
 27 28  1  1  0  0  0
 29 30  1  0  0  0  0
 31 32  1  1  0  0  0
M  END
> <DATABASE_ID>
DB00136

> <DATABASE_NAME>
drugbank

> <SMILES>
C[C@H](CCCC(C)(C)O)[C@@]1([H])CC[C@@]2([H])\C(CCC[C@]12C)=C\C=C1\C[C@@H](O)C[C@H](O)C1=C

> <INCHI_IDENTIFIER>
InChI=1S/C27H44O3/c1-18(8-6-14-26(3,4)30)23-12-13-24-20(9-7-15-27(23,24)5)10-11-21-16-22(28)17-25(29)19(21)2/h10-11,18,22-25,28-30H,2,6-9,12-17H2,1,3-5H3/b20-10+,21-11-/t18-,22-,23-,24+,25+,27-/m1/s1

> <INCHI_KEY>
GMRQFYUYWCNGIN-NKMMMXOESA-N

> <FORMULA>
C27H44O3

> <MOLECULAR_WEIGHT>
416.6365

> <EXACT_MASS>
416.329045274

> <JCHEM_ACCEPTOR_COUNT>
3

> <JCHEM_AVERAGE_POLARIZABILITY>
51.02439043535808

> <JCHEM_BIOAVAILABILITY>
1

> <JCHEM_DONOR_COUNT>
3

> <JCHEM_FORMAL_CHARGE>
0

> <JCHEM_GHOSE_FILTER>
0

> <JCHEM_IUPAC>
(1R,3S,5Z)-5-{2-[(1R,3aS,4E,7aR)-1-[(2R)-6-hydroxy-6-methylheptan-2-yl]-7a-methyl-octahydro-1H-inden-4-ylidene]ethylidene}-4-methylidenecyclohexane-1,3-diol

> <ALOGPS_LOGP>
5.51

> <JCHEM_LOGP>
4.3507409966666675

> <ALOGPS_LOGS>
-4.80

> <JCHEM_MDDR_LIKE_RULE>
1

> <JCHEM_NUMBER_OF_RINGS>
3

> <JCHEM_PHYSIOLOGICAL_CHARGE>
0

> <JCHEM_PKA>
15.288747760735944

> <JCHEM_PKA_STRONGEST_ACIDIC>
14.392873609845417

> <JCHEM_PKA_STRONGEST_BASIC>
-1.2544418727034898

> <JCHEM_POLAR_SURFACE_AREA>
60.69

> <JCHEM_REFRACTIVITY>
126.53249999999996

> <JCHEM_ROTATABLE_BOND_COUNT>
6

> <JCHEM_RULE_OF_FIVE>
1

> <ALOGPS_SOLUBILITY>
6.67e-03 g/l

> <JCHEM_TRADITIONAL_IUPAC>
calcitriol

> <JCHEM_VEBER_RULE>
0

> <DRUGBANK_ID>
DB00136

> <SECONDARY_ACCESSION_NUMBERS>
NUTR00003; APRD00246; DB05314

> <DRUG_GROUPS>
approved; nutraceutical

> <GENERIC_NAME>
Calcitriol

> <SYNONYMS>
(1S,3R,5Z,7E)-9,10-secocholesta-5,7,10-triene-1,3,25-triol; (1α,3β,5Z,7E)-9,10-secocholesta-5,7,10(19)-triene-1,3,25-triol; (5Z,7E)-(1S,3R)-9,10-secocholesta-5,7,10(19)-triene-1,3,25-triol; 1-alpha-25-Dihydroxyvitamin D3; 1,25-DHCC; 1,25-dihydroxycholecalciferol; 1α,25-dihydroxycholecalciferol; 1α,25-dihydroxyvitamin D3; 1α,25(OH)2D3; Calcitriol; Calcitriolum

> <PRODUCTS>
Calcijex; Calcitriol; Calcitriol Capsules; Calcitriol Injection; Calcitriol Injection USP; Calcitriol-odan; Rocaltrol; Rocaltrol Cap 0.25mcg; Rocaltrol Cap 0.5mcg; Rocaltrol Oral Solution 1mcg/ml; Silkis; Taro-calcitriol; Validerm; Vectical

> <INTERNATIONAL_BRANDS>
Asentar; Calcitriol Oral Solution; Decostriol

$$$$
Lutein
  Mrv1572001071617052D          
  Marvin  03020616332D          
 42 43  0  0  0  0            999 V2000
   -6.7893   -0.2309    0.0000 C   0  0  0  0  0  0  0  0  0  0  0  0
   -6.0748    0.1816    0.0000 C   0  0  0  0  0  0  0  0  0  0  0  0
   -7.5038   -1.4684    0.0000 C   0  0  0  0  0  0  0  0  0  0  0  0
   -8.2182   -0.2309    0.0000 C   0  0  0  0  0  0  0  0  0  0  0  0
   -5.3603   -0.2309    0.0000 C   0  0  0  0  0  0  0  0  0  0  0  0
   -4.6459    0.1816    0.0000 C   0  0  0  0  0  0  0  0  0  0  0  0
   -3.9314   -0.2309    0.0000 C   0  0  0  0  0  0  0  0  0  0  0  0
   -4.6459    1.0066    0.0000 C   0  0  0  0  0  0  0  0  0  0  0  0
   -3.2169    0.1816    0.0000 C   0  0  0  0  0  0  0  0  0  0  0  0
   -2.5025   -0.2309    0.0000 C   0  0  0  0  0  0  0  0  0  0  0  0
   -1.7880    0.1816    0.0000 C   0  0  0  0  0  0  0  0  0  0  0  0
   -1.0735   -0.2309    0.0000 C   0  0  0  0  0  0  0  0  0  0  0  0
   -1.7880    1.0066    0.0000 C   0  0  0  0  0  0  0  0  0  0  0  0
   -0.3591    0.1816    0.0000 C   0  0  0  0  0  0  0  0  0  0  0  0
    0.3554   -0.2309    0.0000 C   0  0  0  0  0  0  0  0  0  0  0  0
    1.0699    0.1816    0.0000 C   0  0  0  0  0  0  0  0  0  0  0  0
    1.7844   -0.2309    0.0000 C   0  0  0  0  0  0  0  0  0  0  0  0
    2.4988    0.1816    0.0000 C   0  0  0  0  0  0  0  0  0  0  0  0
    1.7844   -1.0559    0.0000 C   0  0  0  0  0  0  0  0  0  0  0  0
    3.2133   -0.2309    0.0000 C   0  0  0  0  0  0  0  0  0  0  0  0
    3.9278    0.1816    0.0000 C   0  0  0  0  0  0  0  0  0  0  0  0
    4.6422   -0.2309    0.0000 C   0  0  0  0  0  0  0  0  0  0  0  0
    5.3567    0.1816    0.0000 C   0  0  0  0  0  0  0  0  0  0  0  0
    4.6422   -1.0559    0.0000 C   0  0  0  0  0  0  0  0  0  0  0  0
    6.0712   -0.2309    0.0000 C   0  0  0  0  0  0  0  0  0  0  0  0
    6.7857    0.1816    0.0000 C   0  0  1  0  0  0  0  0  0  0  0  0
    7.5001    1.4191    0.0000 C   0  0  0  0  0  0  0  0  0  0  0  0
    8.2146    0.1816    0.0000 C   0  0  0  0  0  0  0  0  0  0  0  0
   -6.7893   -1.0559    0.0000 C   0  0  0  0  0  0  0  0  0  0  0  0
   -6.0748   -1.4684    0.0000 C   0  0  0  0  0  0  0  0  0  0  0  0
    6.0712    1.4191    0.0000 C   0  0  0  0  0  0  0  0  0  0  0  0
    6.7857    1.0066    0.0000 C   0  0  0  0  0  0  0  0  0  0  0  0
   -7.9163    0.8961    0.0000 C   0  0  0  0  0  0  0  0  0  0  0  0
   -7.5038    0.1816    0.0000 C   0  0  0  0  0  0  0  0  0  0  0  0
   -7.0913    0.8961    0.0000 C   0  0  0  0  0  0  0  0  0  0  0  0
    7.0876   -0.9453    0.0000 C   0  0  0  0  0  0  0  0  0  0  0  0
    7.5001   -0.2309    0.0000 C   0  0  0  0  0  0  0  0  0  0  0  0
    7.9126   -0.9453    0.0000 C   0  0  0  0  0  0  0  0  0  0  0  0
    8.2146    1.0066    0.0000 C   0  0  1  0  0  0  0  0  0  0  0  0
    8.9291    1.4191    0.0000 O   0  0  0  0  0  0  0  0  0  0  0  0
   -8.2182   -1.0559    0.0000 C   0  0  2  0  0  0  0  0  0  0  0  0
   -8.9327   -1.4684    0.0000 O   0  0  0  0  0  0  0  0  0  0  0  0
  1 29  2  0  0  0  0
  1 34  1  0  0  0  0
  1  2  1  0  0  0  0
 29  3  1  0  0  0  0
 34  4  1  0  0  0  0
  2  5  2  0  0  0  0
  3 41  1  0  0  0  0
  5  6  1  0  0  0  0
  6  7  2  0  0  0  0
  6  8  1  0  0  0  0
  7  9  1  0  0  0  0
  9 10  2  0  0  0  0
 10 11  1  0  0  0  0
 11 12  2  0  0  0  0
 11 13  1  0  0  0  0
 12 14  1  0  0  0  0
 14 15  2  0  0  0  0
 15 16  1  0  0  0  0
 16 17  2  0  0  0  0
 17 18  1  0  0  0  0
 17 19  1  0  0  0  0
 18 20  2  0  0  0  0
 20 21  1  0  0  0  0
 21 22  2  0  0  0  0
 22 23  1  0  0  0  0
 22 24  1  0  0  0  0
 23 25  2  0  0  0  0
 26 25  1  1  0  0  0
 26 32  1  0  0  0  0
 26 37  1  0  0  0  0
 32 27  2  0  0  0  0
 37 28  1  0  0  0  0
 27 39  1  0  0  0  0
  4 41  1  0  0  0  0
 28 39  1  0  0  0  0
 29 30  1  0  0  0  0
 32 31  1  0  0  0  0
 34 33  1  0  0  0  0
 34 35  1  0  0  0  0
 37 36  1  0  0  0  0
 37 38  1  0  0  0  0
 39 40  1  6  0  0  0
 41 42  1  1  0  0  0
M  END
> <DATABASE_ID>
DB00137

> <DATABASE_NAME>
drugbank

> <SMILES>
C\C(\C=C\C=C(/C)\C=C\[C@H]1C(C)=C[C@H](O)CC1(C)C)=C/C=C/C=C(\C)/C=C/C=C(\C)/C=C/C1=C(C)C[C@@H](O)CC1(C)C

> <INCHI_IDENTIFIER>
InChI=1S/C40H56O2/c1-29(17-13-19-31(3)21-23-37-33(5)25-35(41)27-39(37,7)8)15-11-12-16-30(2)18-14-20-32(4)22-24-38-34(6)26-36(42)28-40(38,9)10/h11-25,35-37,41-42H,26-28H2,1-10H3/b12-11+,17-13+,18-14+,23-21+,24-22+,29-15+,30-16+,31-19+,32-20+/t35-,36+,37-/m0/s1

> <INCHI_KEY>
KBPHJBAIARWVSC-RGZFRNHPSA-N

> <FORMULA>
C40H56O2

> <MOLECULAR_WEIGHT>
568.886

> <EXACT_MASS>
568.428031043

> <JCHEM_ACCEPTOR_COUNT>
2

> <JCHEM_ATOM_COUNT>
98

> <JCHEM_AVERAGE_POLARIZABILITY>
73.81207048094353

> <JCHEM_BIOAVAILABILITY>
0

> <JCHEM_DONOR_COUNT>
2

> <JCHEM_FORMAL_CHARGE>
0

> <JCHEM_GHOSE_FILTER>
0

> <JCHEM_IUPAC>
(1R,4R)-4-[(1E,3E,5E,7E,9E,11E,13E,15E,17E)-18-[(4R)-4-hydroxy-2,6,6-trimethylcyclohex-1-en-1-yl]-3,7,12,16-tetramethyloctadeca-1,3,5,7,9,11,13,15,17-nonaen-1-yl]-3,5,5-trimethylcyclohex-2-en-1-ol

> <ALOGPS_LOGP>
8.29

> <JCHEM_LOGP>
8.550209330666668

> <ALOGPS_LOGS>
-5.89

> <JCHEM_MDDR_LIKE_RULE>
0

> <JCHEM_NUMBER_OF_RINGS>
2

> <JCHEM_PHYSIOLOGICAL_CHARGE>
0

> <JCHEM_PKA>
18.907213404525137

> <JCHEM_PKA_STRONGEST_ACIDIC>
18.21727233987641

> <JCHEM_PKA_STRONGEST_BASIC>
-0.9139435291721482

> <JCHEM_POLAR_SURFACE_AREA>
40.46

> <JCHEM_REFRACTIVITY>
195.0634000000001

> <JCHEM_ROTATABLE_BOND_COUNT>
10

> <JCHEM_RULE_OF_FIVE>
0

> <ALOGPS_SOLUBILITY>
7.32e-04 g/l

> <JCHEM_TRADITIONAL_IUPAC>
carotenoid

> <JCHEM_VEBER_RULE>
0

> <DRUGBANK_ID>
DB00137

> <SECONDARY_ACCESSION_NUMBERS>
NUTR00036; DB11138

> <DRUG_GROUPS>
approved; investigational; nutraceutical

> <GENERIC_NAME>
Lutein

> <SYNONYMS>
Xanthophyll; Xantofyl

> <PRODUCTS>
AREDS2 Formula; Corvita; Corvite; Corvite Free; Doctor Super Lutein; Macuvex; Macuzin; Ocuvel; RE FAC-x; Strovite One Caplets; Tozal

$$$$

  Mrv0541 09241310162D          

 14 13  0  0  0  0            999 V2000
    2.5076    0.1775    0.0000 C   0  0  0  0  0  0  0  0  0  0  0  0
    1.7931   -0.2350    0.0000 C   0  0  1  0  0  0  0  0  0  0  0  0
    2.5076    1.0025    0.0000 O   0  0  0  0  0  0  0  0  0  0  0  0
    1.7931   -1.0600    0.0000 N   0  0  0  0  0  0  0  0  0  0  0  0
    0.3642   -0.2350    0.0000 S   0  0  0  0  0  0  0  0  0  0  0  0
    1.0787    0.1775    0.0000 C   0  0  0  0  0  0  0  0  0  0  0  0
    3.2221   -0.2350    0.0000 O   0  0  0  0  0  0  0  0  0  0  0  0
   -2.4937   -0.2350    0.0000 C   0  0  0  0  0  0  0  0  0  0  0  0
   -1.7792    0.1775    0.0000 C   0  0  1  0  0  0  0  0  0  0  0  0
   -2.4937   -1.0600    0.0000 O   0  0  0  0  0  0  0  0  0  0  0  0
   -1.7792    1.0025    0.0000 N   0  0  0  0  0  0  0  0  0  0  0  0
   -0.3503    0.1775    0.0000 S   0  0  0  0  0  0  0  0  0  0  0  0
   -1.0648   -0.2350    0.0000 C   0  0  0  0  0  0  0  0  0  0  0  0
   -3.2082    0.1775    0.0000 O   0  0  0  0  0  0  0  0  0  0  0  0
  1  2  1  0  0  0  0
  1  3  2  0  0  0  0
  2  4  1  1  0  0  0
  2  6  1  0  0  0  0
  5  6  1  0  0  0  0
  7  1  1  0  0  0  0
  8  9  1  0  0  0  0
  8 10  2  0  0  0  0
  9 11  1  1  0  0  0
  9 13  1  0  0  0  0
 12 13  1  0  0  0  0
 14  8  1  0  0  0  0
  5 12  1  0  0  0  0
M  END
> <DATABASE_ID>
DB00138

> <DATABASE_NAME>
drugbank

> <SMILES>
N[C@@H](CSSC[C@H](N)C(O)=O)C(O)=O

> <INCHI_IDENTIFIER>
InChI=1S/C6H12N2O4S2/c7-3(5(9)10)1-13-14-2-4(8)6(11)12/h3-4H,1-2,7-8H2,(H,9,10)(H,11,12)/t3-,4-/m0/s1

> <INCHI_KEY>
LEVWYRKDKASIDU-IMJSIDKUSA-N

> <FORMULA>
C6H12N2O4S2

> <MOLECULAR_WEIGHT>
240.3

> <EXACT_MASS>
240.023848262

> <JCHEM_ACCEPTOR_COUNT>
6

> <JCHEM_AVERAGE_POLARIZABILITY>
22.772305661240047

> <JCHEM_BIOAVAILABILITY>
1

> <JCHEM_DONOR_COUNT>
4

> <JCHEM_FORMAL_CHARGE>
0

> <JCHEM_GHOSE_FILTER>
0

> <JCHEM_IUPAC>
(2R)-2-amino-3-{[(2R)-2-amino-2-carboxyethyl]disulfanyl}propanoic acid

> <ALOGPS_LOGP>
-3.16

> <JCHEM_LOGP>
-5.897687960059564

> <ALOGPS_LOGS>
-1.16

> <JCHEM_MDDR_LIKE_RULE>
0

> <JCHEM_NUMBER_OF_RINGS>
0

> <JCHEM_PHYSIOLOGICAL_CHARGE>
0

> <JCHEM_PKA>
2.267408279723485

> <JCHEM_PKA_STRONGEST_ACIDIC>
1.5564231091903382

> <JCHEM_PKA_STRONGEST_BASIC>
9.342140596747571

> <JCHEM_POLAR_SURFACE_AREA>
126.64000000000001

> <JCHEM_REFRACTIVITY>
54.87179999999999

> <JCHEM_ROTATABLE_BOND_COUNT>
7

> <JCHEM_RULE_OF_FIVE>
1

> <ALOGPS_SOLUBILITY>
1.68e+01 g/l

> <JCHEM_TRADITIONAL_IUPAC>
L-cystine

> <JCHEM_VEBER_RULE>
0

> <DRUGBANK_ID>
DB00138

> <SECONDARY_ACCESSION_NUMBERS>
NUTR00023

> <DRUG_GROUPS>
approved; nutraceutical

> <GENERIC_NAME>
Cystine

> <SYNONYMS>
(R,R)-3,3'-dithiobis(2-aminopropanoic acid); Cistina; L-alpha-Diamino-beta-dithiolactic acid; L-Cystine; L-Dicysteine; β,β'-dithiodialanine

> <PRODUCTS>
Amino-cerv; Distilpure Msm; Medi Msm (methyl Sulfonyl Methane)

$$$$
139
  Mrv0541 02231214282D          

  8  7  0  0  0  0            999 V2000
    2.0928    0.2063    0.0000 O   0  0  0  0  0  0  0  0  0  0  0  0
    5.6650   -0.2063    0.0000 O   0  0  0  0  0  0  0  0  0  0  0  0
    2.8072   -1.0312    0.0000 O   0  0  0  0  0  0  0  0  0  0  0  0
    4.9504    1.0312    0.0000 O   0  0  0  0  0  0  0  0  0  0  0  0
    3.5217    0.2063    0.0000 C   0  0  0  0  0  0  0  0  0  0  0  0
    4.2361   -0.2063    0.0000 C   0  0  0  0  0  0  0  0  0  0  0  0
    2.8072   -0.2063    0.0000 C   0  0  0  0  0  0  0  0  0  0  0  0
    4.9504    0.2063    0.0000 C   0  0  0  0  0  0  0  0  0  0  0  0
  1  7  1  0  0  0  0
  2  8  1  0  0  0  0
  3  7  2  0  0  0  0
  4  8  2  0  0  0  0
  5  6  1  0  0  0  0
  5  7  1  0  0  0  0
  6  8  1  0  0  0  0
M  END
> <DATABASE_ID>
DB00139

> <DATABASE_NAME>
drugbank

> <SMILES>
OC(=O)CCC(O)=O

> <INCHI_IDENTIFIER>
InChI=1S/C4H6O4/c5-3(6)1-2-4(7)8/h1-2H2,(H,5,6)(H,7,8)

> <INCHI_KEY>
KDYFGRWQOYBRFD-UHFFFAOYSA-N

> <FORMULA>
C4H6O4

> <MOLECULAR_WEIGHT>
118.088

> <EXACT_MASS>
118.02660868

> <JCHEM_ACCEPTOR_COUNT>
4

> <JCHEM_AVERAGE_POLARIZABILITY>
10.141334051490274

> <JCHEM_BIOAVAILABILITY>
1

> <JCHEM_DONOR_COUNT>
2

> <JCHEM_FORMAL_CHARGE>
0

> <JCHEM_GHOSE_FILTER>
0

> <JCHEM_IUPAC>
butanedioic acid

> <ALOGPS_LOGP>
-0.53

> <JCHEM_LOGP>
-0.3984829673333332

> <ALOGPS_LOGS>
0.25

> <JCHEM_MDDR_LIKE_RULE>
0

> <JCHEM_NUMBER_OF_RINGS>
0

> <JCHEM_PHYSIOLOGICAL_CHARGE>
-2

> <JCHEM_PKA>
5.6869121792916

> <JCHEM_PKA_STRONGEST_ACIDIC>
3.554166510976347

> <JCHEM_POLAR_SURFACE_AREA>
74.6

> <JCHEM_REFRACTIVITY>
23.537

> <JCHEM_ROTATABLE_BOND_COUNT>
3

> <JCHEM_RULE_OF_FIVE>
1

> <ALOGPS_SOLUBILITY>
2.11e+02 g/l

> <JCHEM_TRADITIONAL_IUPAC>
succinic acid

> <JCHEM_VEBER_RULE>
0

> <DRUGBANK_ID>
DB00139

> <SECONDARY_ACCESSION_NUMBERS>
NUTR00054

> <DRUG_GROUPS>
approved; nutraceutical

> <GENERIC_NAME>
Succinic acid

> <SYNONYMS>
1,2-ethanedicarboxylic acid; Acide butanedioïque; Acide succinique; Acidum succinicum; Amber acid; Asuccin; Bernsteinsäure; Butandisäure; Butanedioic acid; Butanedionic acid; Dihydrofumaric acid; Ethylenesuccinic acid; Spirit of amber; Succinic acid

> <PRODUCTS>
FeRiva 21 7; Ferrex 150 Forte Plus; Ferrex 150 Plus; Ferrex 28; Iron Aspartate Glycinate and Polysaccharide Complex, Ascorbic Calcium, Vitamin B12, Folic Acid, Calcium Threonate and Succinic Acid; Iron Aspartate, Glycinate, Ascorbic Calcium, Vitamin B12, Calcium Threonate and Succinic Acid; Iron Fumarate and Aspartate, Glycinate, Ascorbic Calcium, Vitamin B12, Folic Acid, Calcium Threonate and Succinic Acid; Irospan 24/6; Niferex; Se-Vate 21/7

$$$$

  Mrv0541 02231214282D          

 27 29  0  0  0  0            999 V2000
    0.7145    0.4125    0.0000 C   0  0  0  0  0  0  0  0  0  0  0  0
    0.7145   -0.4125    0.0000 C   0  0  0  0  0  0  0  0  0  0  0  0
   -0.7145    0.4125    0.0000 C   0  0  0  0  0  0  0  0  0  0  0  0
   -0.7145   -0.4125    0.0000 C   0  0  0  0  0  0  0  0  0  0  0  0
   -1.4289    0.8250    0.0000 C   0  0  0  0  0  0  0  0  0  0  0  0
   -1.4289   -0.8250    0.0000 C   0  0  0  0  0  0  0  0  0  0  0  0
   -2.1434   -0.4125    0.0000 C   0  0  0  0  0  0  0  0  0  0  0  0
   -2.1434    0.4125    0.0000 C   0  0  0  0  0  0  0  0  0  0  0  0
    2.1434    0.4125    0.0000 C   0  0  0  0  0  0  0  0  0  0  0  0
    0.0000   -0.8250    0.0000 N   0  0  0  0  0  0  0  0  0  0  0  0
    1.4289    0.8250    0.0000 N   0  0  0  0  0  0  0  0  0  0  0  0
    1.4289   -0.8250    0.0000 C   0  0  0  0  0  0  0  0  0  0  0  0
    1.4289   -1.6500    0.0000 O   0  0  0  0  0  0  0  0  0  0  0  0
    2.8579    0.8250    0.0000 O   0  0  0  0  0  0  0  0  0  0  0  0
    2.1434   -0.4125    0.0000 N   0  0  0  0  0  0  0  0  0  0  0  0
    0.0000    0.8250    0.0000 N   0  0  0  0  0  0  0  0  0  0  0  0
    0.0000    1.6500    0.0000 C   0  0  0  0  0  0  0  0  0  0  0  0
   -0.7145    2.0625    0.0000 C   0  0  1  0  0  0  0  0  0  0  0  0
   -0.7145    2.8875    0.0000 C   0  0  1  0  0  0  0  0  0  0  0  0
   -1.4289    1.6500    0.0000 O   0  0  0  0  0  0  0  0  0  0  0  0
   -1.4289    3.3000    0.0000 C   0  0  1  0  0  0  0  0  0  0  0  0
    0.0000    3.3000    0.0000 O   0  0  0  0  0  0  0  0  0  0  0  0
   -1.4289    4.1250    0.0000 C   0  0  0  0  0  0  0  0  0  0  0  0
   -2.1434    2.8875    0.0000 O   0  0  0  0  0  0  0  0  0  0  0  0
   -2.1434    4.5375    0.0000 O   0  0  0  0  0  0  0  0  0  0  0  0
   -2.8579    0.8250    0.0000 C   0  0  0  0  0  0  0  0  0  0  0  0
   -2.8579   -0.8250    0.0000 C   0  0  0  0  0  0  0  0  0  0  0  0
 16  3  1  0  0  0  0
 16  1  1  0  0  0  0
  4 10  1  0  0  0  0
 10  2  2  0  0  0  0
 11  1  2  0  0  0  0
  2  1  1  0  0  0  0
  2 12  1  0  0  0  0
 11  9  1  0  0  0  0
 12 15  1  0  0  0  0
 15  9  1  0  0  0  0
  5  3  2  0  0  0  0
  3  4  1  0  0  0  0
  6  4  2  0  0  0  0
  5  8  1  0  0  0  0
  8  7  2  0  0  0  0
  7  6  1  0  0  0  0
  9 14  2  0  0  0  0
 12 13  2  0  0  0  0
 16 17  1  0  0  0  0
 17 18  1  0  0  0  0
 18 19  1  0  0  0  0
 18 20  1  6  0  0  0
 19 21  1  0  0  0  0
 19 22  1  1  0  0  0
 21 23  1  0  0  0  0
 21 24  1  6  0  0  0
 23 25  1  0  0  0  0
  8 26  1  0  0  0  0
  7 27  1  0  0  0  0
M  END
> <DATABASE_ID>
DB00140

> <DATABASE_NAME>
drugbank

> <SMILES>
CC1=C(C)C=C2N(C[C@H](O)[C@H](O)[C@H](O)CO)C3=NC(=O)NC(=O)C3=NC2=C1

> <INCHI_IDENTIFIER>
InChI=1S/C17H20N4O6/c1-7-3-9-10(4-8(7)2)21(5-11(23)14(25)12(24)6-22)15-13(18-9)16(26)20-17(27)19-15/h3-4,11-12,14,22-25H,5-6H2,1-2H3,(H,20,26,27)/t11-,12+,14-/m0/s1

> <INCHI_KEY>
AUNGANRZJHBGPY-SCRDCRAPSA-N

> <FORMULA>
C17H20N4O6

> <MOLECULAR_WEIGHT>
376.3639

> <EXACT_MASS>
376.138284392

> <JCHEM_ACCEPTOR_COUNT>
9

> <JCHEM_AVERAGE_POLARIZABILITY>
37.50068947047601

> <JCHEM_BIOAVAILABILITY>
1

> <JCHEM_DONOR_COUNT>
5

> <JCHEM_FORMAL_CHARGE>
0

> <JCHEM_GHOSE_FILTER>
0

> <JCHEM_IUPAC>
7,8-dimethyl-10-[(2S,3S,4R)-2,3,4,5-tetrahydroxypentyl]-2H,3H,4H,10H-benzo[g]pteridine-2,4-dione

> <ALOGPS_LOGP>
-1.05

> <JCHEM_LOGP>
-0.9165402600000004

> <ALOGPS_LOGS>
-2.76

> <JCHEM_MDDR_LIKE_RULE>
0

> <JCHEM_NUMBER_OF_RINGS>
3

> <JCHEM_PHYSIOLOGICAL_CHARGE>
-1

> <JCHEM_PKA>
12.85283377128792

> <JCHEM_PKA_STRONGEST_ACIDIC>
6.969939518005925

> <JCHEM_PKA_STRONGEST_BASIC>
0.7575464260653612

> <JCHEM_POLAR_SURFACE_AREA>
155.04999999999998

> <JCHEM_REFRACTIVITY>
96.2684

> <JCHEM_ROTATABLE_BOND_COUNT>
5

> <JCHEM_RULE_OF_FIVE>
1

> <ALOGPS_SOLUBILITY>
6.57e-01 g/l

> <JCHEM_TRADITIONAL_IUPAC>
riboflavin

> <JCHEM_VEBER_RULE>
0

> <DRUGBANK_ID>
DB00140

> <SECONDARY_ACCESSION_NUMBERS>
NUTR00010; APRD00626; EXPT02760; DB09358

> <DRUG_GROUPS>
approved; investigational; nutraceutical; vet_approved

> <GENERIC_NAME>
Riboflavin

> <SYNONYMS>
1-Deoxy-1-(7,8-dimethyl-2,4-dioxo-3,4-dihydrobenzo[g]pteridin-10(2H)-yl)pentitol; 6,7-Dimethyl-9-D-ribitylisoalloxazine; 7,8-Dimethyl-10-(D-ribo-2,3,4,5-tetrahydroxypentyl)isoalloxazine; 7,8-Dimethyl-10-ribitylisoalloxazine; Lactoflavin; Lactoflavine; Riboflavin; Riboflavina; Riboflavine; Riboflavinum; Vitamin B2; Vitamin Bi; Vitamin G

> <PRODUCTS>
24 Multivitamins + Minerals; 50 Plus; 50 Plus Multiple Vitamins & Minerals; Active FE; Active OB; Adult Formula 50+; Advanced B & T Formula; Alertonic; Alkadrenergy Tablets; Allbee C 800 Tab; Allbee With C 550 Cap; Allbee With Vitamin C Cap; Am Caps; Animal Shapes; Animal Shapes w/Iron Chewtabs; Antlerviron; Appedrine; Avon Vitadvance Multi-kids Complete; B 50 Capsules; B 6 Plus; B C Antistress Cap; B Complex 25mg Vitamin Supplement; B Complex 50 Vitamin Cap; B Complex 50+ Caplet; B Complex 500 Tab; B Complex Plus C 300mg Tab; B Complex Tablets; B Complex W C Forte Cap; B Complex W Vit C W Non-med Yeast&liver Tab; B Complex W Vitamin C Fortis Cap; B Complex With C 300mg; B Complex With C 300mg Tab; B Complex With C 550mg; B Compound 50mg Tab; B Plus C 300 mg; B Plus C 300mg Timed Release; B Stress C + Iron & Vite; B Totum 500; B Vitamin Compound With B12 Thunas; B With C 500 Cap; B-100 Caps; B-100 Complex Tablets; B-100 Hi Potency B Vitamins Tab; B-100 Vitamin Supplement; B-2 100mg With C 20mg; B-2 Caps 100mg; B-50 Complex; B-50 Complex Tab; B-50 Hi Potency B Vitamins Tab; B-Combo; B-complex; B-complex 100; B-complex 50; B-complex Tab; B-complex Tablets; B-complex With Vitamin C, Biotin, Folic Acid; B-complex-50 Tab; B-plex; B-plus - Tab; B2 Tab 100mg; B50 B Complex Tab; B50 Complex; B6 Plus Tab; Bacmin; Bal-Care DHA; Bal-Care DHA Essential; Balanced B 125 Srt; Balanced B-100 B-complex Vitamins Tab; Balanced B-100 Timed Release; Balanced B-50 B-complex Vitamins Tab; Balanced B-50 B-complex Vitamins, Timed Rele; Balanced B-50 Complex; Balanced B-complex Vit + Vit C&e Tab; Balanced B100; Balanced B50 Complex; Beminal 500 Tab; Beminal W C Fortis Inj; Beminal With C Fortis Cap; Bev 29 Tab; Bev B-150; Bio-fen; Biovim Tab; Biovita; Body Rox; Bugs Bunny Chew Multi Vit Plus Iron; Bugs Bunny and Friends Multiple Vitamins; C-B Complex; C-Nate DHA; C. Vit-min Formula; C.A.G. Tab; C.R.T. X Multivitamin & Mineral Powder Mix; Carbassist Tablets; Cavan Alpha; Cavan Folate DHA; Cavan Folate OB; Cavan Heme OB; Cavan Prenatal; Cavan-EC SOD DHA; Cc II; Cda-21 Vitamins With Non-medicinal Probiotic Complex; Cedevita Plus Vitamin Supplement; Cedevita Sugar-free Vitamin Supplement; Central-vite 18 Essential; Centratex; Century Complete; Chela Iron Plus C,b Complex; Chela Potassium Plus; Chela-chromium 200; Chew.multiple Vits.with Extra C for Children; Chewable Adult Multivitamins With Minerals; Chewable Children's Complete Multivitamins With Essential Minerals; Chewable Multiple Vit Plus Iron for Children; Chewable Multiple Vitamins Plus Extra C; Chewable Multiple Vitamins Plus Iron Tab; Chewable Multiple Vitamins Tab; Chewable Multiple Vitamins for Children; Chewable Multivitamins; Chewable Multivitamins Plus Iron; Children Choice Multivit Chewable Tab; Children Choice Multivitamin W Iron Chew Tab; Children's Chew Multi & Min Tab; Children's Chewable Multi Vit W Iron; Children's Chewable Multi Vitamins; Children's Chewable Multi Vitamins With Iron Tablets; Children's Chewable Multi-vitamin; Children's Chewable Multi-vitamin Complete With Minerals; Children's Chewable Multiple Vit.plus Iron; Children's Chewable Multiple Vitamins (chewable Tablets); Children's Chewable Multiple Vitamins - Tab; Children's Chewable Multiple Vitamins With Extra Vitamin C (chewable Tablets); Children's Chewable Multiple Vitamins With Iron Tablets (chewable Tablets); Children's Chewable Multivitamin Complete With Minerals; Children's Chewable Multivitamin and Multimineral; Children's Chewable Multivitamins With Minerals; Children's Chewable Multivitamins and Minerals; Children's Chewable Tab; Children's Chewable Vit and Min Tab; Children's Chewable With Iron; Children's Multivitamins; Children's Multivitamins With Iron; Children's Vitamins Chewable; Children's Vitamins W Iron Chewable; Childrens Chew Multi Vitamin Tab; Childrens Chewab Vitamin W Chel Minerals; Childrens Chewable Multiple Vitamins; Childrens Chewable Multiple Vitamins Plus Fe; Childrens Chewable Multiple Vitamins Tab; Childrens Chewable Multiple Vitamins W.iron; Childrens Chewable Multivitamins; Childrens Chewable Multivitamins W Iron; Childrens Chewable Tab; Childrens Chewable Vitamin Tab; Childrens Chewable Vitamins; Childrens Chewable Vitamins W Iron; Childrens Multiple Vit and Min Chew Tab; Choice OB DHA; CitraNatal 90 DHA; CitraNatal Assure; CitraNatal DHA; CitraNatal Essence; CitraNatal Rx; Classic Swiss One 10 Multivitamin and Mineral Tab; Coenzyme Q10 Isotonix Vitamin and Mineral Supplement; Complete Mega B; Complete Multivitamins and Minerals Tablets Timed Release; Complete Multivitamins and Minerals for Children; Complete Natal DHA; Complete-RF Prenatal; CompleteNate Chewable; Complex 5 - Pwr; Complex-75; Complexe B 75mg; Complexe B Compose 75; Complexe B-75; Concept DHA; Concept OB; Corvita; Corvite; Corvite Free; Croq-vit Pour Enfants; D'pantothenic Acid-B1-B2 Tab; DaVITE; Daily Balance Tab; Daily Energy Brand B-complex; Daily-Vite; Dalivit; Defense Caplets; Deriton; Derma-force; Dexatrim Tablets; Dexifol; Dia-vite; Dialyvite; Dialyvite 3000; Dialyvite 5000; Dialyvite Supreme D; Dialyvite with Zinc; Diaplex; Doctor's Choice Brand for Men; Dothelle DHA; Duet DHA; Duet DHA 400; Duet DHA 400 ec; Duet DHA Balanced; DuetDHA Balanced; DuetDHA Complete; E & I Formulae; E.S.T. Complex; Earthpals Children's Chewables Multi-vitamin & Mineral Tablets; Edge OB; Efferlife Multivitamins and Minerals; Elite OB Prenatal Multivitamin; Ellis Tonic; Enrich Core Pack - Children Vitamin and Mineral Supplement; Envirocomplex; Enviroflex - Tab; Escavite; Escavite D; Escavite Lq; Essential B Tablets; Essential Vitamins and Minerals; Everyday Multiple Vitamins; Everyday Multiple Vitamins With Iron; Extra Once A Day; Extra P.N. Vitamin-mineral Drink Mix; Ez-flex; Fem Time Tab; Feminique W Iron and Calcium Tab; Ferra Naka Plus Vitamins; Fizz Multivitamins for Kids W C Loz; Flinstones Multiple Plus Iron; Flintstones Multiple Vitamins; Flintstones Multiple Vitamins Plus Iron; Flintstones Multiple Vitamins Tab; Flintstones W Extra C Tab; Floradix Formula Liq; Floravit - Syr; Floriva; Focalgin 90 DHA; Focalgin CA; Folcaps Care One; Folet DHA; Folgard; Folika-NC; Folika-T; Folivane-OB; Folivane-Plus with Ascorbic Acid Precursors; Foltabs Prenatal; Foltabs Prenatal Plus DHA; For Kids Only Chewable Multivit. Plus Iron; For Kids Only Chewable Multivitamins; For Kids Only Chewable Multivitamins - Tab; For-2; Formula Adr-vitamin B2,b6 W Calpan Tab; Formula Cn; Formula D.S.; Formula Dpr; Formula F L W; Formula Fm Vitamins & Minerals Tab; Formula Gly; Formula Hh; Formula Lf; Formula O; Formula O-care Vitamin and Mineral Supplement; Formula O.C.; Formula Pro-B; Fortamines 10 Capsules; Fortamines-10 Comprimes; Fortistress Tab; Forty Plus Vitamin Supplement; Garfield Chewable Multivitamins Tab; Garfield Chewable Multivits Plus Iron Tab; Gemvites Jr Tab Chewable; Genicin Vita-S; Geritol Liquid; Gestamine Comprimes; Gesticare DHA; Globucel - Methode; Glyco Lite Ect; Glyco Plus Ect; Glyco-aide Tab; Grand Master Formula Tab; Great Day/am Formula Tab; Gynedyn Tab; Harvest Of Values All B Complex Tab; Hemarexin Tab; HemeNatal OB; HemeNatal OB plus DHA; Hemocyte Plus; Hi Potency B Complex W Chelated Minerals; Hi Potency B52 B Complex Tab; Hi Potency Balanced B-100 Complex - Tab; Hi Potency Multi Tab; Hi Potency Stress B Tension With C; High Potency Multivitamins & Minerals Caplets; High Potency Vitamin B Complex + C Tab; Hill.vite; Homosismin; Homosistrol Capsules; Homosistrox Capsules; Hylavite; Hylazinc; Hypo Vites Tab; Hyporyl - Tab; INATAL Ultra; Iberet 500; Icaps; Icaps Time Release; Inatal Advance; Infant Multivitamin Drops; Infantol Drops; Innersource Tab; Insur-all Vitamin Supplement; Integra Plus; Iron 25mg With Vit B-cmplx, Vit C, Cu & Mo; Iron Polysaccharides Folic Acid DHA; Iron, Vit & Min Supp; Irospan 24/6; Isotonix Advanced B-complex Vitamins With Potassium and Magnesium; Isotonix Atx Vitamin Mineral Formula; Isotonix Calcium Plus Formula; Isotonix Multitech Vitamin Mineral Supplemen; Isotonix Vitamin B-folic Acid-mineral Supple; Itabs Plus; Junior Multi Vitamins - Regular; K.L. Vitamin-mineral; Kanga-V Multivitamins & Minerals; Kid's Choice Children's Chewable Vitamins - Tab; Kids Stuff Tablets; Kids Stuff With Iron Tablets; Kimchi Vitamin chewable multivitamin; Kindervites; L-Methyl MC; L-Methyl PNV DHA; L-Methyl-MC; L.C. Supplement; L.G.I.T.; Leritone Junior; Lipo-B-C Tab; Lipovite; Liqui B Complex; Liqui B Complex Plus; Liqui Infant Vitamins; Liqui Vita; Liquid B Complex 50; Livron Plus Ampoule; Livron Plus Tab; Lorid; Low Potency B Complex Tab; Luna Vitamin and Mineral Bar for Women; Lysamine Diet Supp Amp-tab; M-Natal Plus; MVC-Fluoride; MYNEPHROCAPS DIALYSIS/STRESS Vitamin Supplement; Magnum-75 Vitamin and Mineral Supplement; Maintain Multiple Vitamin & Minerals; Maltlevol 12 Liq; Maltlevol Liq; Marnatal F; Master Key Multi Vitamin Multi Mineral Formula 2; Materna; Materna - Tab; Materna-tab; Maxi 10 Tab; Maximum Once A Day; Maxine Vitamin and Mineral Supplement; Mega 13 Multivitamin Formula; Mega Balance; Mega Capsules; Mega Plex III - Pck; Mega Plex IV - Pck; Mega Vitaminerals; Mega-vim 75 With Beta-carotene - Tablets; Megavite Rx; Megavites Tab; Men's; Men's 50+; Men's Biomultiple Vitamin and Mineral Supplement; Men's Multi Master Formula; Meplex T 750; Methaver; Milltrium Senior Vitamin and Mineral Supplement; Mini-B Tab; Moms Choice Rx; Mor-vites Tab; Multi #2; Multi - N.T.O.x Formula - Tab; Multi 1000; Multi 12 Injection; Multi B; Multi Enfants Tab; Multi II IV Vi Tab; Multi Nt-OX; Multi Plex I - Tab; Multi Plex II - Tab; Multi Pro; Multi Rol; Multi Tabs; Multi Vitamin & Minerals; Multi Vitamin - Mineral; Multi Vitamin Plus Iron; Multi Vitamin and Mineral vitamin; Multi Vitamin with Fluoride; Multi Vitamin-mineral Formula; Multi Vitamines - Liq; Multi Vitamins & Minerals; Multi Vite Liq Adult; Multi Vite Liq Junior; Multi-11; Multi-12 Pediatric; Multi-12/k1 Pediatric; Multi-Nate 30; Multi-Vit with Fluoride; Multi-Vitamin; Multi-Vitamin Fluoride Drops; Multi-Vitamin Fluoride and Iron Drops; Multi-Vitamin With Fluoride; Multi-actin; Multi-force for Women Tab; Multi-kid; Multi-min Electro C Pow Plus B2; Multi-phyto Capsules; Multi-vitamin Dietary Supplement; Multi-vitamines Enfants Comprime; Multi-vitamins; Multi-vitamins With Minerals; MultiVitamin with Fluoride; MultiVitamin with Fluoride Chewable; Multicaps; Multinate DHA; Multinate DHA Extra; Multipack II; Multiple Vit Plus Iron Tab; Multiple Vitamin Plus Minerals Tab; Multiple Vitamin Tab; Multiple Vitamins; Multiple Vitamins & Minerals Tablets; Multiple Vitamins - Tablet; Multiple Vitamins Childrens Chewable; Multiple Vitamins Plus Iron - Tab; Multiple Vitamins Plus Iron Tab; Multiple Vitamins Plus Iron for Women; Multiple Vitamins Tab; Multiple Vitamins W Iron Tab; Multiple Vitamins W Minerals Tab; Multiple Vitamins With Iron; Multiple Vitamins With Iron Tablets; Multiple Vitamins With Minerals Tablets; Multiple Vitamins and Minerals; Multiple Vitamins and Minerals Capsules; Multiple Vitamins and Minerals Tab; Multitabs; Multivit with Fluoride; Multivit-liq; Multivitamin; Multivitamin & Minerals (iron Free); Multivitamin & Multimineral; Multivitamin Drops with Fluoride; Multivitamin with Fluoride; Multivitamin with fluoride; Multivitamine; Multivitamines; Multivitamines Et Mineraux; Multivitamines Et Mineraux Junior Regulier; Multivitamines Et Mineraux Reguliers / Regular Multivitamins and Minerals; Multivitamines Plus Fer Pour Enfants (chewable Tablets); Multivitamines Pour Enfants (chewable Tablets); Multivitamins; Multivitamins W Iron; Multivitamins W Minerals Extra Strength; Multivitamins and Minerals - Complete; Multivitamins and Minerals Tablets; Multivitamins and Minerals With Betacarotene Tablets; Multivitamins and Minerals for Men; Multivitamins and Minerals for Women; Multivitamins and Minerals for Young Men; Multivitamins and Minerals for Young Women; Multivitamins and Multiminerals Formula Regular Tablet; Multivitamins for Children; Multra Plex; Multra With Iron; Mvc; Myhephron Dialysis and Stress Supplement; N.E.U. Complex; NEONATAL Complete; NESTABS ABC Prenatal Multi-vitamin/Mineral Supplement with DHA/EPA; NESTABS DHA Prenatal Multi-vitamin/Mineral Supplement with DHA/EPA; NESTABS Prenatal Multi-vitamin/Mineral Supplement; Nata Komplete; NataChew; NataFort; Natal-V RX Multi-vitamin/Multi-mineral; Natalvirt 90dha; Natalvirt Ca; Natavite; Natural Source Spectrum With Beta Carotene; Neo Vites Tab; Neo-bex; Neo-vites & Minerals Tab; Neomultivite; Neonatal DHA; Neonatal Plus Vitamin; Neonatal Vitamin; Neonatal19; NephPlex Rx; Nephrocaps; Nephrocaps-QT; Nephron FA; New Chapter's D'adamo 4 Your Type Multiple for Type O; Niva-Plus; NovaFerrum Multivitamin with Iron Pediatric Drops; NovaMV Multivitamin; Numark Multivitamins; Nutra Boost; Nutra-clear; Nutri-Tab OB; Nutri-Tab OB plus DHA; Nutrifer Plus Tablets; Nutrilite Double X; Nutrol-B-complex; O-Cal FA multivitamin; O-Cal Prenatal Vitamin; OB Complete 400; OB Complete DHA; OB Complete Petite; OB Complete Prenatal; Olympian Multi Vit Plus Minerals Tab; Omega-3 Rx Complete; Onccor; Oncovite; One A Day Advance Adults; One A Day Advance Adults 50+; One A Day Advance Fem; One A Day Multiple Vit W Minerals; One A Day Tab; One Daily Vitamin and Mineral Dietary Supplement; One Per Day Vitamin and Mineral Dietary Supplement; One Tablet Daily Mens Formula; One-A-day Advance Fem - Tablets; One-A-day Advance Men's; Only One - Tablet; Orange Flavored Crystal Chews Tab; Orifer F; Original Bioscal Forte Multi-vitamin Supplement Capsules; Orti B; Osteo-force; P.N. Vitamin-mineral Drink; P.N.P. Vitamin Drink; P.R.O. Complex; PM Caps; PNV Ferrous Fumarate Docusate Folic Acid; PNV Prenatal Plus Multivitamin; PNV Prenatal Vitamin; PNV Prenatal Vitamin Plus Vitamin A; PNV Tabs 29-1; PNV-First; PNV-Select; PR Natal 400; PR Natal 400 ec; PR Natal 430; PR Natal 430 ec; Paire OB Plus DHA; Palm Springs Multvit and Min Tab; Paramettes Adults; Paramettes Chewable Multivitamins Plus Iron; Paramettes Chewable Multivits With Iron Tab; Paramettes Multivits Plus Iron Tab (teens); Permathene-12 - Caplet; Phosthenine Vitamines Et Fer (ampoules Buvable); Phytofortis + Calcium A-D; Phytoplex B Liq; Phytopure; Phytovim Cap; Ply Vi Sol Chewable Tab; Pnv Ob DHA; Pnv-OB-dha; Pnv-VP-U; Poly Vi Flor Chewable Tab; Poly-VI-sol Drops; Poly-Vi-Flor; Poly-Vi-Flor with Iron; Poly-Vi-Sol; Poly-Vitamin with Fluoride; Polymine Avec Zinc Et Cuivre; Potassium Plus Vit B Complex; Pre-Tabs DHA Prenatal Multi-vitamin/Mineral Supplement with DHA/EPA; PreGen DHA; PreNatal 19; PreNatal Vitamins Plus; PrePLUS; PreQue 10; PreTAB; Prefera OB plus DHA; PreferaOB; PreferaOB plus DHA; Pregvit; Pregvit Folic 4; Pregvit Folic 5; Premium Prenatal; Premium Prenatal - Tablets; Prena1; Prena1 Chew; Prena1 Plus; Prenara; Prenatabs FA; Prenatal; Prenatal Formula Tab; Prenatal Mega Antioxidant; Prenatal Plus; Prenatal Plus Iron; Prenatal Plus Multivitamin Plus DHA MiniCaps; Prenatal Supplement - Tab; Prenatal Vi-min; Prenatal Vitamin and Mineral Supplement; Prenatal Vitamin and Mineral Supplement -tab; Prenatal Vitamin and Mineral Supplement Tab; Prenatal Vitamins Plus; Prenatal Vitamins Plus Low Iron; Prenatal Vitamins and Minerals Tablets; Prenatal and Post Partum Supplement; Prenatal, DHA; Prenate Elite; Prenate Star; Prenatrix; Prenatryl; Prenatvite; Prenatvite Complete; Prenatvite Plus; Preplus; Prevital Tab; Prim - Royal P.M.T.; PrimaCare; Pro Hers Vanilla; Pro His Mint; Pro Pcos Citrus; Puralor; PureFe OB Plus; PureFe Plus; PureVit DualFe Plus; Q.T. #4 Vitamin and Mineral Dietary Supplement; Q.T. Vitamin and Mineral Drink Mix; Quflora FE; Quflora FE Pediatric Drops; Quflora Pediatric; Quflora Pediatric Drops; RE FAC-x; RE Nata; RE Nata OB; RE Prenatal Multivitamin with Iron; Re Ob 90 DHA; Reaphirm Plant Source DHA; RediChew; Relnate DHA; Renal Caps Dialysis/Stress Vitamin Supplement; Renate; Renate DHA; Reno Caps; Replavite; Revit Multi-vitamins and Minerals; Revit Plus Cap; Revit Tab; Revitalize Multi-vitamin and Mineral Complex; Revival 1 Tab; Riboflavin 5 Phosphate Cap 50mg; Riboflavin Tab 10mg; Riboflavin Tab 5mg; Riboflavin-S Tab 25mg; Right Choice A.M. Multi Formula - Caplet; Se-Care Conceive; Se-Natal; Se-Natal 19; Se-Natal 19 Chewable; Se-Natal One; Se-Plete DHA; Se-Tan PLUS; Select OB; Select-OB Plus DHA Prenatal Supplement Plus DHA; Senior Multi One; SetonET; SetonET-EC; Sibergin B - Cap; Somavit Brand Vitamins and Minerals Complex; Sopalamine 3b Plus; Sopalamine/3b Plus C; Spectrum 2 Cap; Spectrum Performa Multivitamins and Minerals Tablets; Stress B & C Caplet; Stress B Capsules With Vitamin C; Stress B Complex With C and E Tab; Stress B Complex With C, E & Iron; Stress B Complex With C, E and Iron Tab; Stress B Complex With C,e, Zinc and Copper; Stress B With 1000 Mg Vitamin C; Stress B&c Tab; Stress B-complex Plus Iron With Vitamins C&e; Stress Complex 600 Avec Vit E Cuivre Zinc; Stress Ctr Srt; Stress Formula; Stress Formula + Iron; Stress Formula B-comp + 500mg Vit C Tab; Stress Formula Multi-B Comp + 500mg Vit C Cap; Stress Formula Multivitamin Tablets USP; Stress Formula Tab; Stress Formula Vit B With C Complex; Stress Forte Plus Lipotropic Factors; Stress Tab; Stress Tab With Iron and Vitamin E; Stress Tab With Zinc, Copper and Vitamin E; Stress Tablets; Stress Vitamin B With C Complex Tablets; Stressmates; Stresstabs + Zinc-copper; Strovite Forte Caplet; Strovite One Caplets; Sun-rype Vitaburst; Super B Compound W 500mg Vit C; Super Charged Energy; Super Daily No 2; Super Kids Chewable Multivitamin Multimineral (chewable Tablets); Super Multi; Super Pantoplex; Super Stress Capsules; Super Stress Mega B Plus 1000mg Vit C Tab; Super Vita Vim Multivitamins and Minerals; Super Vita-vim With Beta-carotene - Tab; Super Vitalex Ampoule Buvable; Super-pote Vitamin Supplement; Supplement De Multivitamines Infusion Arome Fruits Rouges; Supravite Bouteille 250ml; Supravite Pour Enfants; Supravite Stress Avec Vit E; Supravite Stress Avec Vit E Cuivre Et Zinc; Supravite Stress Avec Vit E Et Fer; Surbex 500 Filmtab; Surbex-500 With Iron; Surbex-500 With Zinc; Swical-energy 3e Age; Swical-energy-2; Swiss One; Swiss One Multi Vit & Chel Min Tab; Swiss One Multivitamin and Mineral Caplet; Swiss One Timed Release Tab; Swiss Total One; T.R.I. B-plex Src; TL-Care DHA; TL-Fluorivite; TL-Folate; TRONVite; Tandem OB; Tandem Plus; Taron-C DHA; Tender Age Multi Vitamins; Tendera-OB; Thrivite 19; Thrivite Rx; Time Release B 100 Compound - Tablet; Timed Release B Complex 100 Srt; Timed Release B-complex 100; Timed Release B-complex 50; Timed Release Vita-vim Srt; Tobakient; Tonimol Cap Liq; Total Living Concepts Formula One - Tab; Totalvit Plus; TriAdvance; TriStart DHA; TriStart ONE; Tricare Prenatal; Tricare Prenatal 2-part Daily Prenatal Vitamin System; Tricare Prenatal Compleat; Tricare Prenatal DHA One; Tricare Prenatal DHA One Rx Multivitamin; Tricare Prenatal DHA One With Folate; Tricare Prenatal Quick Dissolve; Trinatal GT; Trinatal Rx 1; Trinatal Ultra; Trinaz; TriphroCaps; Triveen-Duo DHA; Twin Ultra Liquid Fruit Punch Flavor; Twin Ultra Liquid Grape Flavor; Twin Ultra Liquid Lemon-lime Flavor; Twin Ultra Liquid Orange Flavor; Ultimate OB DHA; UltimateCare ONE NF; Ultra Hr; Usana Megavitamin Tablets - Tab; V & M Vitamin and Mineral Supplement; V-Natal; VIL-Rx; VP-Vite Rx; Vasculine; Vasodyn Tab; Vc II; Vege 1 Daily Tab; Vege Swiss One Multivitamin W Chel Mins Tab; Vena-Bal DHA; Viamon Ampoules Et Comprimes; Vigo Multivitamins Drops/lozenge; Vimeral Tab; Vinacal; Vinate AZ; Virt Nate; Virt Vite GT; Virt-Advance; Virt-Bal DHA Plus; Virt-C DHA; Virt-Caps; Virt-Nate; Virt-Nate DHA; Virt-PN; Virt-Pn; Virt-Tabs; Virt-Vite Plus; Vit B Complex Ctr; Vit B Complex Plus Vit C 550mg; Vit B2 Ctr Srt 200mg; Vit-HA Multi Vitamin and Zinc Supplement; Vita B + C 500 Tab; Vita B Complex Tab; Vita Balance 2000; Vita Day Tab; Vita Plex Tab; Vita Vim Multivitamins and Minerals Tab; Vita Vim With Beta Carotene-caplet; Vita-B; Vita-B-75 Cap; Vita-Rx Diabetic Vitamin; Vita-flavine Cap 100mg; Vita-vim - Tab; Vita-vim With Beta-carotene - Tab; Vita-worth B-complex Tablets; VitaPhil Aide; Vitabanks Vitamin Tab; Vitachrom Gc; Vitaday Junior Tab; Vitaday Tab; Vitafant; Vitafer - Liq; Vitaflex Dietary Suplement; Vitafol Caplet; Vitafol Fe Plus; Vitafol OB Caplet; Vitafol One; Vitafol Plus; Vitafol Ultra; Vitafol-OB Plus DHA Prenatal Supplement Plus DHA; Vital Be-100; Vital-D Rx; Vitalife - Capsule; Vitamin & Mineral Formula 1 Dietary Supplement; Vitamin B + C Cap; Vitamin B Complex + C 300mg Cap; Vitamin B Complex + C 600mg Tab; Vitamin B Complex 100 Tab; Vitamin B Complex 50; Vitamin B Complex Plus 300mg Vitamin C; Vitamin B Complex Plus C 300mg Timed Release; Vitamin B Complex Suppl; Vitamin B Complex Tab; Vitamin B Complex W C 300mg Tab; Vitamin B Complex W C Tab; Vitamin B Compound Tab; Vitamin B Compound W C Tab 500mg; Vitamin B Compound W Vit C 250mg Tab; Vitamin B Compound With Vitamin C Fortis Capsule Dtc; Vitamin B Cpd W Vit C Tab; Vitamin B Tablets; Vitamin B-2; Vitamin B-2 50 Mg Tablets; Vitamin B-2 Riboflavin 100mg Capsules; Vitamin B2 100 mg; Vitamin B2 100mg; Vitamin B2 Tab 100mg; Vitamin B2 Tab 4mg USP Chewable; Vitamin B2 Tablets 100mg; Vitamine Du Groupe B Plus Fer - Liq; Vitamines Et Mineraux; Vitamines Et Mineraux Comprimes; Vitamines Et Mineraux Enfants 970; Vitamines Pour Bebes Et Enfants; Vitaphil 90 DHA; Vitaphil DHA; Vitaplex; Vitasure; Vitogen B Stress C Vit E Zinc & Cop; Vitogen B Stress C600; Vitogen Multiple Vitamins Tab; Vitrexate; Vitrexate FE; Vitrexyl; Vitrexyl plus Iron; Viva CT Prenatal; Viva Kids - Tab; Vol-Care Rx; Vol-Nate; Vol-Plus; Vol-Tab Rx; Vp-heme Ob; Vp-heme Ob DHA; Vp-pnv-dha; Vtb Vitamin and Mineral Supplement; Vyo Cylate - Pwr; Vyqua; Wellness Formula; WesTab Plus; WestGel DHA; Women's Biomultiple Vitamin and Mineral Supplement; Women's Formula; Xvite; Z Bec Tab; Zatean-Pn; Zoo Chews; Zoo Chews Plus Iron; ahoSAN; bioJET; healthy mamaBE WELL ROUNDED BE WELL ROUNDED; vitaMedMD One Rx; vitaMedMD Rx Plus

> <INTERNATIONAL_BRANDS>
Bisulase

> <SALTS>
Riboflavin sodium

$$$$

  Mrv0541 04191212032D          

 16 15  0  0  1  0            999 V2000
   12.1995   -5.4501    0.0000 C   0  0  0  0  0  0  0  0  0  0  0  0
   11.4851   -5.8626    0.0000 C   0  0  1  0  0  0  0  0  0  0  0  0
   10.7706   -5.4501    0.0000 C   0  0  2  0  0  0  0  0  0  0  0  0
   10.0561   -5.8626    0.0000 C   0  0  1  0  0  0  0  0  0  0  0  0
    9.3417   -5.4501    0.0000 C   0  0  2  0  0  0  0  0  0  0  0  0
   12.1995   -4.6251    0.0000 O   0  0  0  0  0  0  0  0  0  0  0  0
   10.7706   -4.6251    0.0000 O   0  0  0  0  0  0  0  0  0  0  0  0
   10.0561   -6.6876    0.0000 O   0  0  0  0  0  0  0  0  0  0  0  0
    9.3417   -4.6251    0.0000 O   0  0  0  0  0  0  0  0  0  0  0  0
   12.9140   -5.8626    0.0000 H   0  0  0  0  0  0  0  0  0  0  0  0
    8.6271   -5.8626    0.0000 C   0  0  0  0  0  0  0  0  0  0  0  0
    7.9127   -5.4501    0.0000 O   0  0  0  0  0  0  0  0  0  0  0  0
   11.4851   -6.6876    0.0000 N   0  0  0  0  0  0  0  0  0  0  0  0
   12.1995   -7.1001    0.0000 C   0  0  0  0  0  0  0  0  0  0  0  0
   12.9140   -6.6876    0.0000 O   0  0  0  0  0  0  0  0  0  0  0  0
   12.1995   -7.9251    0.0000 C   0  0  0  0  0  0  0  0  0  0  0  0
  6  1  2  0  0  0  0
  2  1  1  0  0  0  0
 10  1  1  0  0  0  0
  2 13  1  6  0  0  0
  3  2  1  0  0  0  0
  3  7  1  6  0  0  0
  4  3  1  0  0  0  0
  4  8  1  6  0  0  0
  5  4  1  0  0  0  0
  5  9  1  1  0  0  0
 11  5  1  0  0  0  0
 11 12  1  0  0  0  0
 15 14  2  0  0  0  0
 16 14  1  0  0  0  0
 13 14  1  0  0  0  0
M  END
> <DATABASE_ID>
DB00141

> <DATABASE_NAME>
drugbank

> <SMILES>
[H]C(=O)[C@H](NC(C)=O)[C@@H](O)[C@H](O)[C@H](O)CO

> <INCHI_IDENTIFIER>
InChI=1S/C8H15NO6/c1-4(12)9-5(2-10)7(14)8(15)6(13)3-11/h2,5-8,11,13-15H,3H2,1H3,(H,9,12)/t5-,6+,7+,8+/m0/s1

> <INCHI_KEY>
MBLBDJOUHNCFQT-LXGUWJNJSA-N

> <FORMULA>
C8H15NO6

> <MOLECULAR_WEIGHT>
221.2078

> <EXACT_MASS>
221.089937217

> <JCHEM_ACCEPTOR_COUNT>
6

> <JCHEM_AVERAGE_POLARIZABILITY>
20.489506839444218

> <JCHEM_BIOAVAILABILITY>
1

> <JCHEM_DONOR_COUNT>
5

> <JCHEM_FORMAL_CHARGE>
0

> <JCHEM_GHOSE_FILTER>
0

> <JCHEM_IUPAC>
N-[(2R,3R,4S,5R)-3,4,5,6-tetrahydroxy-1-oxohexan-2-yl]acetamide

> <ALOGPS_LOGP>
-2.10

> <JCHEM_LOGP>
-3.8563957566666667

> <ALOGPS_LOGS>
-0.18

> <JCHEM_MDDR_LIKE_RULE>
0

> <JCHEM_NUMBER_OF_RINGS>
0

> <JCHEM_PHYSIOLOGICAL_CHARGE>
0

> <JCHEM_PKA>
12.800488730738557

> <JCHEM_PKA_STRONGEST_ACIDIC>
11.564821144474056

> <JCHEM_PKA_STRONGEST_BASIC>
-1.1597845911248257

> <JCHEM_POLAR_SURFACE_AREA>
127.09

> <JCHEM_REFRACTIVITY>
48.4469

> <JCHEM_ROTATABLE_BOND_COUNT>
6

> <JCHEM_RULE_OF_FIVE>
1

> <ALOGPS_SOLUBILITY>
1.48e+02 g/l

> <JCHEM_TRADITIONAL_IUPAC>
N acetylglucosamine

> <JCHEM_VEBER_RULE>
0

> <DRUGBANK_ID>
DB00141

> <SECONDARY_ACCESSION_NUMBERS>
NUTR00040

> <DRUG_GROUPS>
approved; investigational; nutraceutical

> <GENERIC_NAME>
N-Acetylglucosamine

> <SYNONYMS>
2-Acetamido-2-deoxy-D-glucose; aldehydo-N-acetyl-D-glucosamine; D-GlcNAc; N-Acetyl-D-glucosamine; N-Acetylchitosamine

> <PRODUCTS>
Cheon Shim Bo Yun; Ginsamin Beauty; IMPLAHeal P.OCream; Powerfulx Ginseng RecoveryCream

$$$$
142
  Mrv0541 02231214282D          

 10  9  0  0  1  0            999 V2000
    4.5079    0.8745    0.0000 O   0  0  0  0  0  0  0  0  0  0  0  0
    1.6500   -1.6005    0.0000 O   0  0  0  0  0  0  0  0  0  0  0  0
    3.7935    2.1120    0.0000 O   0  0  0  0  0  0  0  0  0  0  0  0
    3.0790   -1.6005    0.0000 O   0  0  0  0  0  0  0  0  0  0  0  0
    2.3645    1.2870    0.0000 N   0  0  0  0  0  0  0  0  0  0  0  0
    3.0790    0.0495    0.0000 C   0  0  0  0  0  0  0  0  0  0  0  0
    3.0790    0.8745    0.0000 C   0  0  1  0  0  0  0  0  0  0  0  0
    2.3645   -0.3630    0.0000 C   0  0  0  0  0  0  0  0  0  0  0  0
    3.7935    1.2870    0.0000 C   0  0  0  0  0  0  0  0  0  0  0  0
    2.3645   -1.1880    0.0000 C   0  0  0  0  0  0  0  0  0  0  0  0
  1  9  1  0  0  0  0
  2 10  1  0  0  0  0
  3  9  2  0  0  0  0
  4 10  2  0  0  0  0
  7  5  1  6  0  0  0
  6  7  1  0  0  0  0
  6  8  1  0  0  0  0
  7  9  1  0  0  0  0
  8 10  1  0  0  0  0
M  END
> <DATABASE_ID>
DB00142

> <DATABASE_NAME>
drugbank

> <SMILES>
N[C@@H](CCC(O)=O)C(O)=O

> <INCHI_IDENTIFIER>
InChI=1S/C5H9NO4/c6-3(5(9)10)1-2-4(7)8/h3H,1-2,6H2,(H,7,8)(H,9,10)/t3-/m0/s1

> <INCHI_KEY>
WHUUTDBJXJRKMK-VKHMYHEASA-N

> <FORMULA>
C5H9NO4

> <MOLECULAR_WEIGHT>
147.1293

> <EXACT_MASS>
147.053157781

> <JCHEM_ACCEPTOR_COUNT>
5

> <JCHEM_AVERAGE_POLARIZABILITY>
13.3211868607686

> <JCHEM_BIOAVAILABILITY>
1

> <JCHEM_DONOR_COUNT>
3

> <JCHEM_FORMAL_CHARGE>
0

> <JCHEM_GHOSE_FILTER>
0

> <JCHEM_IUPAC>
(2S)-2-aminopentanedioic acid

> <ALOGPS_LOGP>
-3.54

> <JCHEM_LOGP>
-3.241447075983049

> <ALOGPS_LOGS>
-0.26

> <JCHEM_MDDR_LIKE_RULE>
0

> <JCHEM_NUMBER_OF_RINGS>
0

> <JCHEM_PHYSIOLOGICAL_CHARGE>
-1

> <JCHEM_PKA>
4.27124634014693

> <JCHEM_PKA_STRONGEST_ACIDIC>
1.8777772810395925

> <JCHEM_PKA_STRONGEST_BASIC>
9.536217151721162

> <JCHEM_POLAR_SURFACE_AREA>
100.61999999999999

> <JCHEM_REFRACTIVITY>
31.287699999999997

> <JCHEM_ROTATABLE_BOND_COUNT>
4

> <JCHEM_RULE_OF_FIVE>
1

> <ALOGPS_SOLUBILITY>
8.06e+01 g/l

> <JCHEM_TRADITIONAL_IUPAC>
L-glutamic acid

> <JCHEM_VEBER_RULE>
0

> <DRUGBANK_ID>
DB00142

> <SECONDARY_ACCESSION_NUMBERS>
NUTR00027

> <DRUG_GROUPS>
approved; nutraceutical

> <GENERIC_NAME>
Glutamic acid

> <SYNONYMS>
(2S)-2-Aminopentanedioic acid; (S)-2-Aminopentanedioic acid; (S)-Glutamic acid; ácido glutámico; Glu; Glutamic acid; L-Glutamate; L-Glutamic acid; L-Glutaminic acid

> <PRODUCTS>
20% Prosol; Aminosyn II; Aminosyn II 10% With Electrolytes; Aminosyn II 5% Inj; Aminosyn II 7% Injection; Aminosyn II 7% M In 10% Dextrose(dual Chamber); Aminosyn II 7% With 10% Dextrose; Aminosyn II 7% With 50% Dextrose; Aminosyn II 8.5% Injection; Aminosyn II 8.5% M In 20% Dextrose (dual Chamber); Aminosyn II 8.5% With 50% Dextrose; Aminosyn II In Dextrose Injection; Aminosyn II and Dextrose; Aminosyn II in Dextrose; Aminosyn II with Electrolytes; Aminosyn II with Electrolytes in Dextrose with Calcium; Aminosyn-PF; Aminosyn-PF 10%; Aminosyn-PF 7%; Clinisol; Glutamic Acid HCl Betaine HCl W Pepsin; Glutamic Acid HCl Cap 325mg; Glutamic Acid Hydrochloride Nu Life; Glutamic Acid Pepsin and Betaine Tablets; Kabiven; Novamine; Olimel 3.3% E; Olimel 4.4%; Olimel 4.4% E; Olimel 5.7%; Olimel 5.7% E; Olimel 7.6%; Olimel 7.6% E; Perikabiven; Periolimel 2.5% E; Plenamine; Premasol - sulfite-free (Amino Acid); Primene; Primene 10%; Primene 10%-liq IV; ProSol; Stomach Aid-digestive Aid; TrophAmine; Vamin 18 Electrolyte-free; Vamin N; Women Secret; Women Secret Care

> <SALTS>
Glutamic acid hydrochloride

$$$$

  Mrv1909 07102021182D          

 22 21  0  0  1  0            999 V2000
    1.2375    0.7145    0.0000 C   0  0  0  0  0  0  0  0  0  0  0  0
    0.5230    1.1270    0.0000 C   0  0  0  0  0  0  0  0  0  0  0  0
   -2.3349   -1.3480    0.0000 C   0  0  0  0  0  0  0  0  0  0  0  0
   -2.3349    1.1270    0.0000 C   0  0  0  0  0  0  0  0  0  0  0  0
    1.9520    1.1270    0.0000 C   0  0  1  0  0  0  0  0  0  0  0  0
   -1.6204    0.7145    0.0000 C   0  0  1  0  0  0  0  0  0  0  0  0
   -0.1914    0.7145    0.0000 C   0  0  0  0  0  0  0  0  0  0  0  0
   -3.0493   -1.7605    0.0000 C   0  0  0  0  0  0  0  0  0  0  0  0
   -1.6204   -0.1105    0.0000 C   0  0  0  0  0  0  0  0  0  0  0  0
    2.6664    0.7145    0.0000 C   0  0  0  0  0  0  0  0  0  0  0  0
    1.9520    1.9520    0.0000 N   0  0  0  0  0  0  0  0  0  0  0  0
   -2.3349   -0.5230    0.0000 N   0  0  0  0  0  0  0  0  0  0  0  0
   -0.9059    1.1270    0.0000 N   0  0  0  0  0  0  0  0  0  0  0  0
   -0.1914   -0.1105    0.0000 O   0  0  0  0  0  0  0  0  0  0  0  0
   -3.0493   -2.5855    0.0000 O   0  0  0  0  0  0  0  0  0  0  0  0
   -3.7638   -1.3480    0.0000 O   0  0  0  0  0  0  0  0  0  0  0  0
   -0.9059   -0.5230    0.0000 O   0  0  0  0  0  0  0  0  0  0  0  0
    3.3809    1.1270    0.0000 O   0  0  0  0  0  0  0  0  0  0  0  0
    2.6664   -0.1105    0.0000 O   0  0  0  0  0  0  0  0  0  0  0  0
   -2.3349    1.9520    0.0000 S   0  0  0  0  0  0  0  0  0  0  0  0
    1.9520    0.3020    0.0000 H   0  0  0  0  0  0  0  0  0  0  0  0
   -2.3349    0.3020    0.0000 H   0  0  0  0  0  0  0  0  0  0  0  0
  2  1  1  0  0  0  0
  5  1  1  0  0  0  0
  6  4  1  0  0  0  0
  7  2  1  0  0  0  0
  8  3  1  0  0  0  0
  6  9  1  0  0  0  0
  5 10  1  0  0  0  0
  5 11  1  0  0  0  0
 12  3  1  4  0  0  0
 12  9  2  0  0  0  0
  6 13  1  0  0  0  0
 13  7  2  0  0  0  0
  7 14  1  4  0  0  0
 15  8  2  0  0  0  0
 16  8  1  0  0  0  0
 17  9  1  0  0  0  0
 18 10  2  0  0  0  0
 19 10  1  0  0  0  0
 20  4  1  0  0  0  0
  5 21  1  1  0  0  0
  6 22  1  1  0  0  0
M  END
> <DATABASE_ID>
DB00143

> <DATABASE_NAME>
drugbank

> <SMILES>
[H][C@](N)(CCC(O)=N[C@@]([H])(CS)C(O)=NCC(O)=O)C(O)=O

> <INCHI_IDENTIFIER>
InChI=1S/C10H17N3O6S/c11-5(10(18)19)1-2-7(14)13-6(4-20)9(17)12-3-8(15)16/h5-6,20H,1-4,11H2,(H,12,17)(H,13,14)(H,15,16)(H,18,19)/t5-,6-/m0/s1

> <INCHI_KEY>
RWSXRVCMGQZWBV-WDSKDSINSA-N

> <FORMULA>
C10H17N3O6S

> <MOLECULAR_WEIGHT>
307.323

> <EXACT_MASS>
307.083805981

> <JCHEM_ACCEPTOR_COUNT>
9

> <JCHEM_ATOM_COUNT>
37

> <JCHEM_AVERAGE_NEUTRAL_MICROSPECIES_CHARGE>
-0.9581314423908049

> <JCHEM_AVERAGE_POLARIZABILITY>
29.457619235626538

> <JCHEM_BIOAVAILABILITY>
1

> <JCHEM_DONOR_COUNT>
6

> <JCHEM_FORMAL_CHARGE>
0

> <JCHEM_GHOSE_FILTER>
0

> <JCHEM_IUPAC>
(2S)-2-amino-4-{[(1R)-1-[(carboxymethyl)-C-hydroxycarbonimidoyl]-2-sulfanylethyl]-C-hydroxycarbonimidoyl}butanoic acid

> <ALOGPS_LOGP>
-2.27

> <JCHEM_LOGP>
-3.3418175161547246

> <ALOGPS_LOGS>
-3.10

> <JCHEM_MDDR_LIKE_RULE>
0

> <JCHEM_NEUTRAL_CHARGE>
-1

> <JCHEM_NUMBER_OF_RINGS>
0

> <JCHEM_PHYSIOLOGICAL_CHARGE>
-1

> <JCHEM_PKA>
3.404932456789688

> <JCHEM_PKA_STRONGEST_ACIDIC>
2.0125505562891273

> <JCHEM_PKA_STRONGEST_BASIC>
9.429191875177525

> <JCHEM_POLAR_SURFACE_AREA>
165.79999999999998

> <JCHEM_REFRACTIVITY>
70.15830000000001

> <JCHEM_ROTATABLE_BOND_COUNT>
9

> <JCHEM_RULE_OF_FIVE>
0

> <ALOGPS_SOLUBILITY>
2.46e-01 g/l

> <JCHEM_TRADITIONAL_IUPAC>
ergosterol

> <JCHEM_VEBER_RULE>
0

> <DRUGBANK_ID>
DB00143

> <SECONDARY_ACCESSION_NUMBERS>
NUTR00029; EXPT01650

> <DRUG_GROUPS>
approved; investigational; nutraceutical

> <GENERIC_NAME>
Glutathione

> <SYNONYMS>
5-L-Glutamyl-L-cysteinylglycine; gamma-L-Glutamyl-L-cysteinyl-glycine; Glutathione; Glutathione-SH; GSH; N-(N-gamma-L-Glutamyl-L-cysteinyl)glycine; Reduced glutathione

> <PRODUCTS>
AREDS2 Formula; Haruto Hangover Defencepatch; Tobakient

> <INTERNATIONAL_BRANDS>
Isethion

$$$$

  Mrv1909 09302014502D          

 54 53  0  0  0  0            999 V2000
    6.8000    1.8369    0.0000 P   0  0  0  0  0  0  0  0  0  0  0  0
    7.1772    1.1031    0.0000 O   0  0  0  0  0  0  0  0  0  0  0  0
    8.0012    1.0628    0.0000 C   0  0  0  0  0  0  0  0  0  0  0  0
    8.3783    0.3290    0.0000 C   0  0  1  0  0  0  0  0  0  0  0  0
    9.2024    0.2888    0.0000 C   0  0  0  0  0  0  0  0  0  0  0  0
    9.6492    0.9822    0.0000 O   0  0  0  0  0  0  0  0  0  0  0  0
    9.5794   -0.4449    0.0000 O   0  0  0  0  0  0  0  0  0  0  0  0
    7.9314   -0.3644    0.0000 N   0  0  0  0  0  0  0  0  0  0  0  0
    7.5337    2.2141    0.0000 O   0  0  0  0  0  0  0  0  0  0  0  0
    6.0662    1.4598    0.0000 O   0  0  0  0  0  0  0  0  0  0  0  0
    5.3728    1.9067    0.0000 C   0  0  0  0  0  0  0  0  0  0  0  0
    4.6388    1.5296    0.0000 C   0  0  1  0  0  0  0  0  0  0  0  0
    3.9454    1.9764    0.0000 C   0  0  0  0  0  0  0  0  0  0  0  0
    3.2116    1.5993    0.0000 O   0  0  0  0  0  0  0  0  0  0  0  0
    4.5986    0.7054    0.0000 O   0  0  0  0  0  0  0  0  0  0  0  0
    6.4228    2.5706    0.0000 O   0  0  0  0  0  0  0  0  0  0  0  0
    2.4972    2.0118    0.0000 C   0  0  0  0  0  0  0  0  0  0  0  0
    1.7825    1.5993    0.0000 C   0  0  0  0  0  0  0  0  0  0  0  0
    1.0681    2.0118    0.0000 C   0  0  0  0  0  0  0  0  0  0  0  0
    0.3537    1.5993    0.0000 C   0  0  0  0  0  0  0  0  0  0  0  0
   -0.3608    2.0118    0.0000 C   0  0  0  0  0  0  0  0  0  0  0  0
   -1.0753    1.5993    0.0000 C   0  0  0  0  0  0  0  0  0  0  0  0
   -1.7898    2.0118    0.0000 C   0  0  0  0  0  0  0  0  0  0  0  0
   -2.5042    1.5993    0.0000 C   0  0  0  0  0  0  0  0  0  0  0  0
   -3.2188    2.0118    0.0000 C   0  0  0  0  0  0  0  0  0  0  0  0
   -3.9332    1.5993    0.0000 C   0  0  0  0  0  0  0  0  0  0  0  0
   -4.6478    2.0118    0.0000 C   0  0  0  0  0  0  0  0  0  0  0  0
   -5.3622    1.5993    0.0000 C   0  0  0  0  0  0  0  0  0  0  0  0
   -6.0768    2.0118    0.0000 C   0  0  0  0  0  0  0  0  0  0  0  0
   -6.7912    1.5993    0.0000 C   0  0  0  0  0  0  0  0  0  0  0  0
   -7.5058    2.0118    0.0000 C   0  0  0  0  0  0  0  0  0  0  0  0
   -8.2203    1.5993    0.0000 C   0  0  0  0  0  0  0  0  0  0  0  0
    4.0152    0.1221    0.0000 C   0  0  0  0  0  0  0  0  0  0  0  0
    3.2183    0.3356    0.0000 C   0  0  0  0  0  0  0  0  0  0  0  0
    2.6350   -0.2477    0.0000 C   0  0  0  0  0  0  0  0  0  0  0  0
    1.8380   -0.0342    0.0000 C   0  0  0  0  0  0  0  0  0  0  0  0
    1.2547   -0.6176    0.0000 C   0  0  0  0  0  0  0  0  0  0  0  0
    0.4577   -0.4041    0.0000 C   0  0  0  0  0  0  0  0  0  0  0  0
   -0.1255   -0.9874    0.0000 C   0  0  0  0  0  0  0  0  0  0  0  0
   -0.9225   -0.7739    0.0000 C   0  0  0  0  0  0  0  0  0  0  0  0
   -1.5058   -1.3573    0.0000 C   0  0  0  0  0  0  0  0  0  0  0  0
   -2.3028   -1.1437    0.0000 C   0  0  0  0  0  0  0  0  0  0  0  0
   -2.8862   -1.7271    0.0000 C   0  0  0  0  0  0  0  0  0  0  0  0
   -3.6832   -1.5136    0.0000 C   0  0  0  0  0  0  0  0  0  0  0  0
   -4.2664   -2.0970    0.0000 C   0  0  0  0  0  0  0  0  0  0  0  0
   -5.0634   -1.8835    0.0000 C   0  0  0  0  0  0  0  0  0  0  0  0
   -5.6469   -2.4668    0.0000 C   0  0  0  0  0  0  0  0  0  0  0  0
   -6.4437   -2.2533    0.0000 C   0  0  0  0  0  0  0  0  0  0  0  0
    2.4972    2.8368    0.0000 O   0  0  0  0  0  0  0  0  0  0  0  0
    4.2288   -0.6748    0.0000 O   0  0  0  0  0  0  0  0  0  0  0  0
   -8.9347    2.0118    0.0000 C   0  0  0  0  0  0  0  0  0  0  0  0
   -9.6492    1.5993    0.0000 C   0  0  0  0  0  0  0  0  0  0  0  0
   -7.0271   -2.8368    0.0000 C   0  0  0  0  0  0  0  0  0  0  0  0
   -7.8241   -2.6231    0.0000 C   0  0  0  0  0  0  0  0  0  0  0  0
  2  1  1  0  0  0  0
  3  2  1  0  0  0  0
  4  3  1  0  0  0  0
  5  4  1  0  0  0  0
  6  5  2  0  0  0  0
  7  5  1  0  0  0  0
  4  8  1  1  0  0  0
  9  1  2  0  0  0  0
 10  1  1  0  0  0  0
 10 11  1  0  0  0  0
 11 12  1  0  0  0  0
 12 13  1  0  0  0  0
 13 14  1  0  0  0  0
 12 15  1  6  0  0  0
 16  1  1  0  0  0  0
 14 17  1  0  0  0  0
 17 18  1  0  0  0  0
 18 19  1  0  0  0  0
 19 20  1  0  0  0  0
 20 21  1  0  0  0  0
 21 22  1  0  0  0  0
 22 23  1  0  0  0  0
 23 24  1  0  0  0  0
 24 25  1  0  0  0  0
 25 26  1  0  0  0  0
 26 27  1  0  0  0  0
 27 28  1  0  0  0  0
 28 29  1  0  0  0  0
 29 30  1  0  0  0  0
 30 31  1  0  0  0  0
 31 32  1  0  0  0  0
 15 33  1  0  0  0  0
 33 34  1  0  0  0  0
 34 35  1  0  0  0  0
 35 36  1  0  0  0  0
 36 37  1  0  0  0  0
 37 38  1  0  0  0  0
 38 39  1  0  0  0  0
 39 40  1  0  0  0  0
 40 41  1  0  0  0  0
 41 42  1  0  0  0  0
 42 43  1  0  0  0  0
 43 44  1  0  0  0  0
 44 45  1  0  0  0  0
 45 46  1  0  0  0  0
 46 47  1  0  0  0  0
 47 48  1  0  0  0  0
 17 49  2  0  0  0  0
 33 50  2  0  0  0  0
 32 51  1  0  0  0  0
 51 52  1  0  0  0  0
 48 53  1  0  0  0  0
 53 54  1  0  0  0  0
M  END
> <DATABASE_ID>
DB00144

> <DATABASE_NAME>
drugbank

> <SMILES>
CCCCCCCCCCCCCCCCCC(=O)OC[C@H](COP(O)(=O)OC[C@H](N)C(O)=O)OC(=O)CCCCCCCCCCCCCCCCC

> <INCHI_IDENTIFIER>
InChI=1S/C42H82NO10P/c1-3-5-7-9-11-13-15-17-19-21-23-25-27-29-31-33-40(44)50-35-38(36-51-54(48,49)52-37-39(43)42(46)47)53-41(45)34-32-30-28-26-24-22-20-18-16-14-12-10-8-6-4-2/h38-39H,3-37,43H2,1-2H3,(H,46,47)(H,48,49)/t38-,39+/m1/s1

> <INCHI_KEY>
TZCPCKNHXULUIY-RGULYWFUSA-N

> <FORMULA>
C42H82NO10P

> <MOLECULAR_WEIGHT>
792.089

> <EXACT_MASS>
791.567634842

> <JCHEM_ACCEPTOR_COUNT>
7

> <JCHEM_ATOM_COUNT>
136

> <JCHEM_AVERAGE_NEUTRAL_MICROSPECIES_CHARGE>
0.9676581386689886

> <JCHEM_AVERAGE_POLARIZABILITY>
96.62824396452243

> <JCHEM_BIOAVAILABILITY>
0

> <JCHEM_DONOR_COUNT>
3

> <JCHEM_FORMAL_CHARGE>
0

> <JCHEM_GHOSE_FILTER>
0

> <JCHEM_IUPAC>
(2S)-2-amino-3-({[(2R)-2,3-bis(octadecanoyloxy)propoxy](hydroxy)phosphoryl}oxy)propanoic acid

> <ALOGPS_LOGP>
4.95

> <JCHEM_LOGP>
11.27178142556594

> <ALOGPS_LOGS>
-7.07

> <JCHEM_MDDR_LIKE_RULE>
0

> <JCHEM_NEUTRAL_CHARGE>
-1

> <JCHEM_NUMBER_OF_RINGS>
0

> <JCHEM_PHYSIOLOGICAL_CHARGE>
-1

> <JCHEM_PKA>
2.178396015655449

> <JCHEM_PKA_STRONGEST_ACIDIC>
1.4680339991787534

> <JCHEM_PKA_STRONGEST_BASIC>
9.376604467850061

> <JCHEM_POLAR_SURFACE_AREA>
171.68

> <JCHEM_REFRACTIVITY>
215.23780000000002

> <JCHEM_ROTATABLE_BOND_COUNT>
44

> <JCHEM_RULE_OF_FIVE>
0

> <ALOGPS_SOLUBILITY>
6.74e-05 g/l

> <JCHEM_TRADITIONAL_IUPAC>
distearoyl phosphatidylserine

> <JCHEM_VEBER_RULE>
0

> <DRUGBANK_ID>
DB00144

> <SECONDARY_ACCESSION_NUMBERS>
NUTR00048

> <DRUG_GROUPS>
investigational; nutraceutical

> <GENERIC_NAME>
Phosphatidyl serine

> <SYNONYMS>
Phosphatidyl serine; Phosphatidylserine; PS

> <PRODUCTS>
EnBrace HR; EnLyte; PramLyte

> <INTERNATIONAL_BRANDS>
LifeExtension PS Caps

$$$$

  Mrv1909 11291917002D          

  5  4  0  0  0  0            999 V2000
    0.3572   -0.2062    0.0000 C   0  0  0  0  0  0  0  0  0  0  0  0
   -0.3572   -0.6187    0.0000 C   0  0  0  0  0  0  0  0  0  0  0  0
    1.0718   -0.6187    0.0000 O   0  0  0  0  0  0  0  0  0  0  0  0
    0.3572    0.6187    0.0000 O   0  0  0  0  0  0  0  0  0  0  0  0
   -1.0717   -0.2062    0.0000 N   0  0  0  0  0  0  0  0  0  0  0  0
  2  1  1  0  0  0  0
  4  1  2  0  0  0  0
  3  1  1  0  0  0  0
  2  5  1  0  0  0  0
M  END
> <DATABASE_ID>
DB00145

> <DATABASE_NAME>
drugbank

> <SMILES>
NCC(O)=O

> <INCHI_IDENTIFIER>
InChI=1S/C2H5NO2/c3-1-2(4)5/h1,3H2,(H,4,5)

> <INCHI_KEY>
DHMQDGOQFOQNFH-UHFFFAOYSA-N

> <FORMULA>
C2H5NO2

> <MOLECULAR_WEIGHT>
75.0666

> <EXACT_MASS>
75.032028409

> <JCHEM_ACCEPTOR_COUNT>
3

> <JCHEM_ATOM_COUNT>
10

> <JCHEM_AVERAGE_POLARIZABILITY>
6.647019971293048

> <JCHEM_BIOAVAILABILITY>
1

> <JCHEM_DONOR_COUNT>
2

> <JCHEM_FORMAL_CHARGE>
0

> <JCHEM_GHOSE_FILTER>
0

> <JCHEM_IUPAC>
2-aminoacetic acid

> <ALOGPS_LOGP>
-3.34

> <JCHEM_LOGP>
-3.409459573132419

> <ALOGPS_LOGS>
0.87

> <JCHEM_MDDR_LIKE_RULE>
0

> <JCHEM_NUMBER_OF_RINGS>
0

> <JCHEM_PHYSIOLOGICAL_CHARGE>
0

> <JCHEM_PKA_STRONGEST_ACIDIC>
2.3074568824727444

> <JCHEM_PKA_STRONGEST_BASIC>
9.240341660583645

> <JCHEM_POLAR_SURFACE_AREA>
63.31999999999999

> <JCHEM_REFRACTIVITY>
16.0034

> <JCHEM_ROTATABLE_BOND_COUNT>
1

> <JCHEM_RULE_OF_FIVE>
1

> <ALOGPS_SOLUBILITY>
5.52e+02 g/l

> <JCHEM_TRADITIONAL_IUPAC>
palladium(2+) (4S,5S,14R,15R)-10-acetyl-4-(2-carboxyethyl)-15-ethyl-2-(2-methoxy-2-oxoethyl)-5,9,14,19-tetramethyl-20-[(2-sulfoethyl)carbamoyl]-21,22,23,24-tetraazapentacyclo[16.2.1.1^{3,6}.1^{8,11}.1^{13,16}]tetracosa-1,3(24),6,8,10,12,16(22),17,19-nonaene-21,23-diide

> <JCHEM_VEBER_RULE>
0

> <DRUGBANK_ID>
DB00145

> <SECONDARY_ACCESSION_NUMBERS>
NUTR00028

> <DRUG_GROUPS>
approved; nutraceutical; vet_approved

> <GENERIC_NAME>
Glycine

> <SYNONYMS>
Aminoacetic acid; Aminoessigsäure; Aminoethanoic acid; Glicina; Gly; Glycin; Glycine; Glycocoll; Glykokoll; Glyzin; Leimzucker

> <PRODUCTS>
2.5% Travasol Amino Acid Injection With Electrolytes In 10% Dextrose; 2.5% Travasol Amino Acid Injection With Electrolytes In 10% Dextrose Clinimix; 2.5% Travasol Amino Acid Injection Without Electrolytes In 10% Dextrose Quickmix; 2.5%travasol Amino Acid InJ.W.eleC.W.25%dex; 2.75% Travas. Amino Acid InJ.W.elecw.25%dex; 2.75% Travasol Amino Acid Injection With Electrolytes In 25% Dextrose Quickmix; 2.75% Travasol Amino Acid Injection With Electrolytes In 5% Dextrose Quickmix; 2.75%travasol Amino Acid InJ.W.eleC.W.5%dex.; 20% Prosol; 4.25% Amino Acid Injection Without Electrolytes In 20% Dextrose Quickmix; 4.25% Travasol Amino Acid Injection With Electrolytes In 10% Dextrose; 4.25% Travasol Amino Acid Injection With Electrolytes In 20% Dextrose; 4.25% Travasol Amino Acid Injection With Electrolytes In 20% Dextrose Quickmix; 4.25% Travasol Amino Acid Injection With Electrolytes In 25% Dextrose; 4.25% Travasol Amino Acid Injection With Electrolytes In 5% Dextrose Quickmix; 4.25% Travasol Amino Acid Injection Without Electrlytes In 10% Dextrose; 4.25% Travasol Amino Acid Injection Without Electrolytes In 20% Dextrose; 4.25% Travasol Amino Acid Injection Without Electrolytes In 25% Dextrose; 4.25% Travasol Amino Acid Without Electrolytes In 5% Dextrose Quickmix; 4.25%trav. Amino Acid InJ.W.O.elect.5%dext.; 4.25%travasol Amino Acid InJ.W.elecw.5%dex.; 5% Travasol Amino Acid Injection With Electrolytes In 20% Dextrose; 5% Travasol Amino Acid Injection Without Electrolytes In 20% Dextrose; 5% Travasol Amino Acid Injection Without Electrolytes In 25% Dextrose; 8.5% Freamine III; Aminoderm Poudre; Aminosyn; Aminosyn 10% W Electrolytes; Aminosyn 3.5% M; Aminosyn 5%; Aminosyn 7%; Aminosyn 8.5%; Aminosyn 8.5% Injection With Electrolytes; Aminosyn HF; Aminosyn II; Aminosyn II 10% With Electrolytes; Aminosyn II 5% Inj; Aminosyn II 7% Injection; Aminosyn II 7% M In 10% Dextrose(dual Chamber); Aminosyn II 7% With 10% Dextrose; Aminosyn II 7% With 50% Dextrose; Aminosyn II 8.5% Injection; Aminosyn II 8.5% M In 20% Dextrose (dual Chamber); Aminosyn II 8.5% With 50% Dextrose; Aminosyn II In Dextrose Injection; Aminosyn II and Dextrose; Aminosyn II in Dextrose; Aminosyn II with Electrolytes; Aminosyn II with Electrolytes in Dextrose with Calcium; Aminosyn Sulfite Free; Aminosyn-PF; Aminosyn-PF 10%; Aminosyn-PF 7%; Antacid 2 Tablets; BANACOCica-aid Centella Peptide emulsion; CAREDO Repair Cracked Teeth Toothpastes 100g; CAREDO Treating Gingivitis Toothpastes 100g; Cicatrin Powder; Clinimix; Clinimix 2.5% Travasol Aa Without Electrolytes In 10% Dextrose Injec; Clinimix E; Clinisol; FreAmine HBC; FreAmine III; Glycine; Glycine 1.5% Irrigation USP Sol; Glycine Irrigation 1.5% USP; Glycine Irrigation USP; HepatAmine; Hepatasol; Kabiven; Novamine; Nutrineal Pd4; Olimel 3.3% E; Olimel 4.4%; Olimel 4.4% E; Olimel 5.7%; Olimel 5.7% E; Olimel 7.6%; Olimel 7.6% E; Perikabiven; Periolimel 2.5% E; Ph 12 Sterile Diluent for Flolan; Plenamine; Premasol - sulfite-free (Amino Acid); Primene; Primene 10%; Primene 10%-liq IV; ProSol; ProcalAmine; Quick Mix 2.5% Travasol Aa With Electrolytes With 25% Dextrose Injec; RenAmin; Renamin (amino Acids) Injection; Smofkabiven; Smofkabiven Electrolyte Free; Smofkabiven Extra Nitrogen; Smofkabiven Extra Nitrogen Electrolyte Free; Smofkabiven Peripheral; Sterile Diluent for Flolan Injection; Synthamin; Travasol; Travasol Amino Acid Inj 5.5%; Travasol Amino Acid Inj 8.5%; Travasol E; Travasol Inj Without Electrolytes 5.5%; Travasol Inj Without Electrolytes 8.5%; TrophAmine; Vamin 18 Electrolyte-free; Vamin N

> <INTERNATIONAL_BRANDS>
Gyn-Hydralin

$$$$

  Mrv0541 04191212102D          

 31 33  0  0  1  0            999 V2000
   -1.0890    1.2765    0.0000 C   0  0  0  0  0  0  0  0  0  0  0  0
   -1.0890   -0.3735    0.0000 C   0  0  0  0  0  0  0  0  0  0  0  0
    0.4101   -0.2159    0.0000 C   0  0  0  0  0  0  0  0  0  0  0  0
    0.8950    0.4515    0.0000 C   0  0  0  0  0  0  0  0  0  0  0  0
   -1.8035    0.8640    0.0000 C   0  0  0  0  0  0  0  0  0  0  0  0
   -1.0890   -1.1985    0.0000 C   0  0  0  0  0  0  0  0  0  0  0  0
   -1.8035    0.0390    0.0000 C   0  0  0  0  0  0  0  0  0  0  0  0
   -1.8035   -1.6110    0.0000 C   0  0  0  0  0  0  0  0  0  0  0  0
   -1.8035   -2.4360    0.0000 C   0  0  0  0  0  0  0  0  0  0  0  0
   -1.0890   -2.8485    0.0000 C   0  0  0  0  0  0  0  0  0  0  0  0
   -2.5179   -2.8485    0.0000 C   0  0  0  0  0  0  0  0  0  0  0  0
   -1.0890   -3.6735    0.0000 C   0  0  0  0  0  0  0  0  0  0  0  0
   -0.3745   -2.4360    0.0000 C   0  0  0  0  0  0  0  0  0  0  0  0
   -2.5179   -3.6735    0.0000 C   0  0  2  0  0  0  0  0  0  0  0  0
   -1.8035   -4.0860    0.0000 C   0  0  0  0  0  0  0  0  0  0  0  0
   -3.2324   -4.0860    0.0000 O   0  0  0  0  0  0  0  0  0  0  0  0
   -0.3044    2.3565    0.0000 C   0  0  0  0  0  0  0  0  0  0  0  0
    0.4101    1.9440    0.0000 C   0  0  2  0  0  0  0  0  0  0  0  0
    1.1246    2.3565    0.0000 C   0  0  0  0  0  0  0  0  0  0  0  0
    1.8390    1.9440    0.0000 C   0  0  0  0  0  0  0  0  0  0  0  0
    3.9825    2.3565    0.0000 C   0  0  0  0  0  0  0  0  0  0  0  0
    3.2680    1.1190    0.0000 C   0  0  0  0  0  0  0  0  0  0  0  0
    2.5535    2.3565    0.0000 C   0  0  0  0  0  0  0  0  0  0  0  0
    0.4101    1.1190    0.0000 C   0  0  2  0  0  0  0  0  0  0  0  0
    1.1246    1.5315    0.0000 H   0  0  0  0  0  0  0  0  0  0  0  0
   -0.3745    0.0390    0.0000 C   0  0  2  0  0  0  0  0  0  0  0  0
   -0.3745   -0.7860    0.0000 H   0  0  0  0  0  0  0  0  0  0  0  0
   -0.3745    0.8640    0.0000 C   0  0  2  0  0  0  0  0  0  0  0  0
   -0.3745    1.6890    0.0000 C   0  0  0  0  0  0  0  0  0  0  0  0
    3.2680    1.9440    0.0000 C   0  0  0  0  0  0  0  0  0  0  0  0
    3.9825    1.5315    0.0000 O   0  0  0  0  0  0  0  0  0  0  0  0
 26 28  1  0  0  0  0
 28 24  1  0  0  0  0
 28  1  1  0  0  0  0
 26  2  1  0  0  0  0
 26  3  1  0  0  0  0
 24  4  1  0  0  0  0
  1  5  1  0  0  0  0
  2  6  2  0  0  0  0
  2  7  1  0  0  0  0
  6  8  1  0  0  0  0
  8  9  2  0  0  0  0
  9 10  1  0  0  0  0
  9 11  1  0  0  0  0
 10 12  1  0  0  0  0
 10 13  2  0  0  0  0
 11 14  1  0  0  0  0
 12 15  1  0  0  0  0
 14 16  1  6  0  0  0
  3  4  1  0  0  0  0
  5  7  1  0  0  0  0
 14 15  1  0  0  0  0
 24 18  1  0  0  0  0
 18 17  1  6  0  0  0
 18 19  1  0  0  0  0
 19 20  1  0  0  0  0
 20 23  1  0  0  0  0
 23 30  1  0  0  0  0
 30 21  1  0  0  0  0
 30 22  1  0  0  0  0
 24 25  1  6  0  0  0
 26 27  1  6  0  0  0
 28 29  1  1  0  0  0
 30 31  1  0  0  0  0
M  END
> <DATABASE_ID>
DB00146

> <DATABASE_NAME>
drugbank

> <SMILES>
C[C@H](CCCC(C)(C)O)[C@@]1([H])CC[C@@]2([H])\C(CCC[C@]12C)=C\C=C1\C[C@@H](O)CCC1=C

> <INCHI_IDENTIFIER>
InChI=1S/C27H44O2/c1-19-10-13-23(28)18-22(19)12-11-21-9-7-17-27(5)24(14-15-25(21)27)20(2)8-6-16-26(3,4)29/h11-12,20,23-25,28-29H,1,6-10,13-18H2,2-5H3/b21-11+,22-12-/t20-,23+,24-,25+,27-/m1/s1

> <INCHI_KEY>
JWUBBDSIWDLEOM-DTOXIADCSA-N

> <FORMULA>
C27H44O2

> <MOLECULAR_WEIGHT>
400.6371

> <EXACT_MASS>
400.334130652

> <JCHEM_ACCEPTOR_COUNT>
2

> <JCHEM_AVERAGE_POLARIZABILITY>
50.319516931050124

> <JCHEM_BIOAVAILABILITY>
1

> <JCHEM_DONOR_COUNT>
2

> <JCHEM_FORMAL_CHARGE>
0

> <JCHEM_GHOSE_FILTER>
0

> <JCHEM_IUPAC>
(1S,3Z)-3-{2-[(1R,3aS,4E,7aR)-1-[(2R)-6-hydroxy-6-methylheptan-2-yl]-7a-methyl-octahydro-1H-inden-4-ylidene]ethylidene}-4-methylidenecyclohexan-1-ol

> <ALOGPS_LOGP>
6.71

> <JCHEM_LOGP>
5.654346069666669

> <ALOGPS_LOGS>
-5.26

> <JCHEM_MDDR_LIKE_RULE>
1

> <JCHEM_NUMBER_OF_RINGS>
3

> <JCHEM_PHYSIOLOGICAL_CHARGE>
0

> <JCHEM_PKA>
18.53076846661296

> <JCHEM_PKA_STRONGEST_ACIDIC>
18.384341369959035

> <JCHEM_PKA_STRONGEST_BASIC>
-0.9842558878714639

> <JCHEM_POLAR_SURFACE_AREA>
40.46

> <JCHEM_REFRACTIVITY>
125.06059999999997

> <JCHEM_ROTATABLE_BOND_COUNT>
6

> <JCHEM_RULE_OF_FIVE>
0

> <ALOGPS_SOLUBILITY>
2.20e-03 g/l

> <JCHEM_TRADITIONAL_IUPAC>
25-hydroxyvitamin D3

> <JCHEM_VEBER_RULE>
0

> <DRUGBANK_ID>
DB00146

> <SECONDARY_ACCESSION_NUMBERS>
NUTR00006; APRD00428

> <DRUG_GROUPS>
approved; nutraceutical

> <GENERIC_NAME>
Calcifediol

> <SYNONYMS>
(3S,5Z,7E)-9,10-secocholesta-5,7,10-triene-3,25-diol; (3β,5Z,7E)-9,10-secocholesta-5,7,10(19)-triene-3,25-diol; (5Z,7E)-(3S)-9,10-secocholesta-5,7,10(19)-triene-3,25-diol; 25-hydroxycholecalciferol; 25-Hydroxyvitamin D3; Calcidiol; Calcifédiol; Calcifediol; Calcifediol anhydrous; Calcifediolum

> <PRODUCTS>
Rayaldee

> <INTERNATIONAL_BRANDS>
Calderol; Caldiol; De Kai; Dedrogyl; Dédrogyl; Didrogyl; Hidroferol

> <SALTS>
Calcifediol hydrate

$$$$
147
  Mrv0541 02231214282D          

 12 12  0  0  0  0            999 V2000
    2.0930    0.2063    0.0000 O   0  0  0  0  0  0  0  0  0  0  0  0
    5.6655   -0.2063    0.0000 O   0  0  0  0  0  0  0  0  0  0  0  0
    2.8075    1.4438    0.0000 O   0  0  0  0  0  0  0  0  0  0  0  0
    3.5220   -1.4438    0.0000 N   0  0  0  0  0  0  0  0  0  0  0  0
    4.2365   -0.2063    0.0000 C   0  0  0  0  0  0  0  0  0  0  0  0
    3.5220    0.2063    0.0000 C   0  0  0  0  0  0  0  0  0  0  0  0
    2.8075   -0.2063    0.0000 C   0  0  0  0  0  0  0  0  0  0  0  0
    2.8075   -1.0313    0.0000 C   0  0  0  0  0  0  0  0  0  0  0  0
    4.9509    0.2063    0.0000 C   0  0  0  0  0  0  0  0  0  0  0  0
    4.2365   -1.0313    0.0000 C   0  0  0  0  0  0  0  0  0  0  0  0
    2.0930   -1.4438    0.0000 C   0  0  0  0  0  0  0  0  0  0  0  0
    3.5220    1.0313    0.0000 C   0  0  0  0  0  0  0  0  0  0  0  0
  1  7  1  0  0  0  0
  2  9  1  0  0  0  0
  3 12  2  0  0  0  0
  4  8  2  0  0  0  0
  4 10  1  0  0  0  0
  5  6  1  0  0  0  0
  5  9  1  0  0  0  0
  5 10  2  0  0  0  0
  6  7  2  0  0  0  0
  6 12  1  0  0  0  0
  7  8  1  0  0  0  0
  8 11  1  0  0  0  0
M  END
> <DATABASE_ID>
DB00147

> <DATABASE_NAME>
drugbank

> <SMILES>
CC1=NC=C(CO)C(C=O)=C1O

> <INCHI_IDENTIFIER>
InChI=1S/C8H9NO3/c1-5-8(12)7(4-11)6(3-10)2-9-5/h2,4,10,12H,3H2,1H3

> <INCHI_KEY>
RADKZDMFGJYCBB-UHFFFAOYSA-N

> <FORMULA>
C8H9NO3

> <MOLECULAR_WEIGHT>
167.162

> <EXACT_MASS>
167.058243159

> <JCHEM_ACCEPTOR_COUNT>
4

> <JCHEM_AVERAGE_POLARIZABILITY>
16.28064098837296

> <JCHEM_BIOAVAILABILITY>
1

> <JCHEM_DONOR_COUNT>
2

> <JCHEM_FORMAL_CHARGE>
0

> <JCHEM_GHOSE_FILTER>
1

> <JCHEM_IUPAC>
3-hydroxy-5-(hydroxymethyl)-2-methylpyridine-4-carbaldehyde

> <ALOGPS_LOGP>
0.02

> <JCHEM_LOGP>
0.17853081366666687

> <ALOGPS_LOGS>
-1.16

> <JCHEM_MDDR_LIKE_RULE>
0

> <JCHEM_NUMBER_OF_RINGS>
1

> <JCHEM_PHYSIOLOGICAL_CHARGE>
0

> <JCHEM_PKA>
14.658014655901226

> <JCHEM_PKA_STRONGEST_ACIDIC>
7.971193899104745

> <JCHEM_PKA_STRONGEST_BASIC>
4.110818751313327

> <JCHEM_POLAR_SURFACE_AREA>
70.42

> <JCHEM_REFRACTIVITY>
43.8734

> <JCHEM_ROTATABLE_BOND_COUNT>
2

> <JCHEM_RULE_OF_FIVE>
1

> <ALOGPS_SOLUBILITY>
1.17e+01 g/l

> <JCHEM_TRADITIONAL_IUPAC>
pyridoxal

> <JCHEM_VEBER_RULE>
0

> <DRUGBANK_ID>
DB00147

> <SECONDARY_ACCESSION_NUMBERS>
NUTR00049

> <DRUG_GROUPS>
experimental; nutraceutical

> <GENERIC_NAME>
Pyridoxal

> <SYNONYMS>
2-methyl-3-hydroxy-4-formyl-5-hydroxymethylpyridine; 3-hydroxy-5-(hydroxymethyl)-2-methyl-4-pyridinecarboxaldehyde; 3-hydroxy-5-(hydroxymethyl)-2-methylisonicotinaldehyde; 3-hydroxy-5-(hydroxymethyl)-2-methylpyridine-4-carboxaldehyde; Piridoxal; Pyridoxaldehyde

> <SALTS>
Pyridoxal hydrochloride

$$$$

  Mrv1652309121709242D          

  9  8  0  0  0  0            999 V2000
    1.9520    1.9520    0.0000 C   0  0  0  0  0  0  0  0  0  0  0  0
    1.9520    1.1270    0.0000 N   0  0  0  0  0  0  0  0  0  0  0  0
    1.2375    0.7145    0.0000 C   0  0  0  0  0  0  0  0  0  0  0  0
    0.5230    1.1270    0.0000 C   0  0  0  0  0  0  0  0  0  0  0  0
   -0.1914    0.7145    0.0000 O   0  0  0  0  0  0  0  0  0  0  0  0
    0.5230    1.9520    0.0000 O   0  0  0  0  0  0  0  0  0  0  0  0
    2.6664    0.7145    0.0000 C   0  0  0  0  0  0  0  0  0  0  0  0
    3.3809    1.1270    0.0000 N   0  0  0  0  0  0  0  0  0  0  0  0
    2.6664   -0.1105    0.0000 N   0  0  0  0  0  0  0  0  0  0  0  0
  1  2  1  0  0  0  0
  2  3  1  0  0  0  0
  3  4  1  0  0  0  0
  4  5  2  0  0  0  0
  4  6  1  0  0  0  0
  2  7  1  0  0  0  0
  7  8  2  0  0  0  0
  7  9  1  0  0  0  0
M  END
> <DATABASE_ID>
DB00148

> <DATABASE_NAME>
drugbank

> <SMILES>
CN(CC(O)=O)C(N)=N

> <INCHI_IDENTIFIER>
InChI=1S/C4H9N3O2/c1-7(4(5)6)2-3(8)9/h2H2,1H3,(H3,5,6)(H,8,9)

> <INCHI_KEY>
CVSVTCORWBXHQV-UHFFFAOYSA-N

> <FORMULA>
C4H9N3O2

> <MOLECULAR_WEIGHT>
131.1332

> <EXACT_MASS>
131.069476547

> <JCHEM_ACCEPTOR_COUNT>
5

> <JCHEM_ATOM_COUNT>
18

> <JCHEM_AVERAGE_POLARIZABILITY>
12.170880209535248

> <JCHEM_BIOAVAILABILITY>
1

> <JCHEM_DONOR_COUNT>
3

> <JCHEM_FORMAL_CHARGE>
0

> <JCHEM_GHOSE_FILTER>
0

> <JCHEM_IUPAC>
2-(N-methylcarbamimidamido)acetic acid

> <ALOGPS_LOGP>
-1.59

> <JCHEM_LOGP>
-2.8642238844128185

> <ALOGPS_LOGS>
-1.50

> <JCHEM_MDDR_LIKE_RULE>
0

> <JCHEM_NUMBER_OF_RINGS>
0

> <JCHEM_PHYSIOLOGICAL_CHARGE>
0

> <JCHEM_PKA_STRONGEST_ACIDIC>
3.501029063602651

> <JCHEM_PKA_STRONGEST_BASIC>
12.429771248504041

> <JCHEM_POLAR_SURFACE_AREA>
90.41

> <JCHEM_REFRACTIVITY>
42.0127

> <JCHEM_ROTATABLE_BOND_COUNT>
2

> <JCHEM_RULE_OF_FIVE>
1

> <ALOGPS_SOLUBILITY>
4.11e+00 g/l

> <JCHEM_TRADITIONAL_IUPAC>
creatine

> <JCHEM_VEBER_RULE>
0

> <DRUGBANK_ID>
DB00148

> <SECONDARY_ACCESSION_NUMBERS>
NUTR00022

> <DRUG_GROUPS>
approved; investigational; nutraceutical

> <GENERIC_NAME>
Creatine

> <SYNONYMS>
((amino(Imino)methyl)(methyl)amino)acetic acid; (alpha-Methylguanido)acetic acid; (N-methylcarbamimidamido)acetic acid; (α-methylguanido)acetic acid; alpha-Methylguanidino acetic acid; Creatin; Creatine; Kreatin; Methylglycocyamine; N-(aminoiminomethyl)-N-methylglycine; N-amidinosarcosine; N-carbamimidoyl-N-methylglycine; N-methyl-N-guanylglycine

> <PRODUCTS>
Ginsamin Energy

$$$$

  Mrv0541 12091422482D          

  9  8  0  0  1  0            999 V2000
    1.7862   -0.2063    0.0000 O   0  0  0  0  0  0  0  0  0  0  0  0
   -1.7862    0.2063    0.0000 C   0  0  0  0  0  0  0  0  0  0  0  0
   -0.3572    0.2063    0.0000 C   0  0  0  0  0  0  0  0  0  0  0  0
    1.0717    0.2062    0.0000 C   0  0  0  0  0  0  0  0  0  0  0  0
    1.0717    1.0311    0.0000 O   0  0  0  0  0  0  0  0  0  0  0  0
    0.3572   -0.2063    0.0000 C   0  0  1  0  0  0  0  0  0  0  0  0
    0.3572   -1.0313    0.0000 N   0  0  0  0  0  0  0  0  0  0  0  0
   -1.0717   -0.2062    0.0000 C   0  0  0  0  0  0  0  0  0  0  0  0
   -1.0717   -1.0313    0.0000 C   0  0  0  0  0  0  0  0  0  0  0  0
  1  4  1  0  0  0  0
  6  4  1  0  0  0  0
  3  6  1  0  0  0  0
  8  3  1  0  0  0  0
  2  8  1  0  0  0  0
  4  5  2  0  0  0  0
  6  7  1  1  0  0  0
  8  9  1  0  0  0  0
M  END
> <DATABASE_ID>
DB00149

> <DATABASE_NAME>
drugbank

> <SMILES>
CC(C)C[C@H](N)C(O)=O

> <INCHI_IDENTIFIER>
InChI=1S/C6H13NO2/c1-4(2)3-5(7)6(8)9/h4-5H,3,7H2,1-2H3,(H,8,9)/t5-/m0/s1

> <INCHI_KEY>
ROHFNLRQFUQHCH-YFKPBYRVSA-N

> <FORMULA>
C6H13NO2

> <MOLECULAR_WEIGHT>
131.1729

> <EXACT_MASS>
131.094628665

> <JCHEM_ACCEPTOR_COUNT>
3

> <JCHEM_ATOM_COUNT>
22

> <JCHEM_AVERAGE_POLARIZABILITY>
14.159799841686521

> <JCHEM_BIOAVAILABILITY>
1

> <JCHEM_DONOR_COUNT>
2

> <JCHEM_FORMAL_CHARGE>
0

> <JCHEM_GHOSE_FILTER>
0

> <JCHEM_IUPAC>
(2S)-2-amino-4-methylpentanoic acid

> <ALOGPS_LOGP>
-1.82

> <JCHEM_LOGP>
-1.5861571715466434

> <ALOGPS_LOGS>
-0.27

> <JCHEM_MDDR_LIKE_RULE>
0

> <JCHEM_NUMBER_OF_RINGS>
0

> <JCHEM_PHYSIOLOGICAL_CHARGE>
0

> <JCHEM_PKA_STRONGEST_ACIDIC>
2.7877088821858544

> <JCHEM_PKA_STRONGEST_BASIC>
9.51901425787269

> <JCHEM_POLAR_SURFACE_AREA>
63.31999999999999

> <JCHEM_REFRACTIVITY>
34.1709

> <JCHEM_ROTATABLE_BOND_COUNT>
3

> <JCHEM_RULE_OF_FIVE>
1

> <ALOGPS_SOLUBILITY>
6.98e+01 g/l

> <JCHEM_TRADITIONAL_IUPAC>
L-leucine

> <JCHEM_VEBER_RULE>
0

> <DRUGBANK_ID>
DB00149

> <SECONDARY_ACCESSION_NUMBERS>
NUTR00033

> <DRUG_GROUPS>
investigational; nutraceutical

> <GENERIC_NAME>
Leucine

> <SYNONYMS>
(2S)-2-Amino-4-methylpentanoic acid; (2S)-alpha-2-Amino-4-methylvaleric acid; (2S)-alpha-Leucine; (S)-(+)-Leucine; (S)-Leucine; 2-Amino-4-methylvaleric acid; L; L-Leucin; L-Leucine; L-Leuzin; Leu; Leucine

> <PRODUCTS>
2.5% Travasol Amino Acid Injection With Electrolytes In 10% Dextrose; 2.5% Travasol Amino Acid Injection With Electrolytes In 10% Dextrose Clinimix; 2.5% Travasol Amino Acid Injection Without Electrolytes In 10% Dextrose Quickmix; 2.5%travasol Amino Acid InJ.W.eleC.W.25%dex; 2.75% Travas. Amino Acid InJ.W.elecw.25%dex; 2.75% Travasol Amino Acid Injection With Electrolytes In 25% Dextrose Quickmix; 2.75% Travasol Amino Acid Injection With Electrolytes In 5% Dextrose Quickmix; 2.75%travasol Amino Acid InJ.W.eleC.W.5%dex.; 20% Prosol; 4.25% Amino Acid Injection Without Electrolytes In 20% Dextrose Quickmix; 4.25% Travasol Amino Acid Injection With Electrolytes In 10% Dextrose; 4.25% Travasol Amino Acid Injection With Electrolytes In 20% Dextrose; 4.25% Travasol Amino Acid Injection With Electrolytes In 20% Dextrose Quickmix; 4.25% Travasol Amino Acid Injection With Electrolytes In 25% Dextrose; 4.25% Travasol Amino Acid Injection With Electrolytes In 5% Dextrose Quickmix; 4.25% Travasol Amino Acid Injection Without Electrlytes In 10% Dextrose; 4.25% Travasol Amino Acid Injection Without Electrolytes In 20% Dextrose; 4.25% Travasol Amino Acid Injection Without Electrolytes In 25% Dextrose; 4.25% Travasol Amino Acid Without Electrolytes In 5% Dextrose Quickmix; 4.25%trav. Amino Acid InJ.W.O.elect.5%dext.; 4.25%travasol Amino Acid InJ.W.elecw.5%dex.; 5% Travasol Amino Acid Injection With Electrolytes In 20% Dextrose; 5% Travasol Amino Acid Injection Without Electrolytes In 20% Dextrose; 5% Travasol Amino Acid Injection Without Electrolytes In 25% Dextrose; 8.5% Freamine III; ASCE plus Derma Signal Kit SRLV S; Aminosyn; Aminosyn 10% W Electrolytes; Aminosyn 3.5% M; Aminosyn 5%; Aminosyn 7%; Aminosyn 8.5%; Aminosyn 8.5% Injection With Electrolytes; Aminosyn HF; Aminosyn II; Aminosyn II 10% With Electrolytes; Aminosyn II 5% Inj; Aminosyn II 7% Injection; Aminosyn II 7% M In 10% Dextrose(dual Chamber); Aminosyn II 7% With 10% Dextrose; Aminosyn II 7% With 50% Dextrose; Aminosyn II 8.5% Injection; Aminosyn II 8.5% M In 20% Dextrose (dual Chamber); Aminosyn II 8.5% With 50% Dextrose; Aminosyn II In Dextrose Injection; Aminosyn II and Dextrose; Aminosyn II in Dextrose; Aminosyn II with Electrolytes; Aminosyn II with Electrolytes in Dextrose with Calcium; Aminosyn RF; Aminosyn RF Injection; Aminosyn Sulfite Free; Aminosyn-PF; Aminosyn-PF 10%; Aminosyn-PF 7%; Bcaa 4% Inj; BranchAmin; Clinimix; Clinimix 2.5% Travasol Aa Without Electrolytes In 10% Dextrose Injec; Clinimix E; Clinisol; FreAmine HBC; FreAmine III; HepatAmine; Hepatasol; Kabiven; NephrAmine; Nephramine Liq IV; Novamine; Nutrineal Pd4; Olimel 3.3% E; Olimel 4.4%; Olimel 4.4% E; Olimel 5.7%; Olimel 5.7% E; Olimel 7.6%; Olimel 7.6% E; Perikabiven; Periolimel 2.5% E; Plenamine; Premasol - sulfite-free (Amino Acid); Primene; Primene 10%; Primene 10%-liq IV; ProSol; ProcalAmine; Quick Mix 2.5% Travasol Aa With Electrolytes With 25% Dextrose Injec; RenAmin; Renamin (amino Acids) Injection; Smofkabiven; Smofkabiven Electrolyte Free; Smofkabiven Extra Nitrogen; Smofkabiven Extra Nitrogen Electrolyte Free; Smofkabiven Peripheral; Synthamin; Travasol; Travasol Amino Acid Inj 5.5%; Travasol Amino Acid Inj 8.5%; Travasol E; Travasol Inj Without Electrolytes 5.5%; Travasol Inj Without Electrolytes 8.5%; TrophAmine; Vamin 18 Electrolyte-free; Vamin N

> <SALTS>
L-Leucine hydrochloride

$$$$

  Mrv1909 11291916532D          

 15 16  0  0  0  0            999 V2000
   -0.2451   -0.1498    0.0000 C   0  0  0  0  0  0  0  0  0  0  0  0
   -0.3313   -0.9703    0.0000 C   0  0  0  0  0  0  0  0  0  0  0  0
   -1.1383   -1.1418    0.0000 N   0  0  0  0  0  0  0  0  0  0  0  0
   -1.5508   -0.4274    0.0000 C   0  0  0  0  0  0  0  0  0  0  0  0
   -0.9988    0.1856    0.0000 C   0  0  0  0  0  0  0  0  0  0  0  0
   -1.2537    0.9702    0.0000 C   0  0  0  0  0  0  0  0  0  0  0  0
   -2.3578   -0.2558    0.0000 C   0  0  0  0  0  0  0  0  0  0  0  0
   -2.6127    0.5287    0.0000 C   0  0  0  0  0  0  0  0  0  0  0  0
   -2.0607    1.1418    0.0000 C   0  0  0  0  0  0  0  0  0  0  0  0
    1.8982    1.0876    0.0000 O   0  0  0  0  0  0  0  0  0  0  0  0
    1.8982    0.2626    0.0000 C   0  0  0  0  0  0  0  0  0  0  0  0
    2.6127   -0.1498    0.0000 O   0  0  0  0  0  0  0  0  0  0  0  0
    1.1837   -0.1498    0.0000 C   0  0  1  0  0  0  0  0  0  0  0  0
    1.1837   -0.9748    0.0000 N   0  0  0  0  0  0  0  0  0  0  0  0
    0.4693    0.2626    0.0000 C   0  0  0  0  0  0  0  0  0  0  0  0
  1  2  2  0  0  0  0
  1  5  1  0  0  0  0
  2  3  1  0  0  0  0
  3  4  1  0  0  0  0
  4  5  2  0  0  0  0
  4  7  1  0  0  0  0
  5  6  1  0  0  0  0
  6  9  2  0  0  0  0
  7  8  2  0  0  0  0
  8  9  1  0  0  0  0
 11 10  2  0  0  0  0
 12 11  1  0  0  0  0
 13 11  1  0  0  0  0
 13 14  1  1  0  0  0
 15 13  1  0  0  0  0
  1 15  1  0  0  0  0
M  END
> <DATABASE_ID>
DB00150

> <DATABASE_NAME>
drugbank

> <SMILES>
N[C@@H](CC1=CNC2=C1C=CC=C2)C(O)=O

> <INCHI_IDENTIFIER>
InChI=1S/C11H12N2O2/c12-9(11(14)15)5-7-6-13-10-4-2-1-3-8(7)10/h1-4,6,9,13H,5,12H2,(H,14,15)/t9-/m0/s1

> <INCHI_KEY>
QIVBCDIJIAJPQS-VIFPVBQESA-N

> <FORMULA>
C11H12N2O2

> <MOLECULAR_WEIGHT>
204.2252

> <EXACT_MASS>
204.089877638

> <JCHEM_ACCEPTOR_COUNT>
3

> <JCHEM_ATOM_COUNT>
27

> <JCHEM_AVERAGE_POLARIZABILITY>
21.047414013171778

> <JCHEM_BIOAVAILABILITY>
1

> <JCHEM_DONOR_COUNT>
3

> <JCHEM_FORMAL_CHARGE>
0

> <JCHEM_GHOSE_FILTER>
0

> <JCHEM_IUPAC>
(2S)-2-amino-3-(1H-indol-3-yl)propanoic acid

> <ALOGPS_LOGP>
-1.10

> <JCHEM_LOGP>
-1.0854569138833579

> <ALOGPS_LOGS>
-2.18

> <JCHEM_MDDR_LIKE_RULE>
0

> <JCHEM_NUMBER_OF_RINGS>
2

> <JCHEM_PHYSIOLOGICAL_CHARGE>
0

> <JCHEM_PKA>
16.1565885064574

> <JCHEM_PKA_STRONGEST_ACIDIC>
2.5439286383469866

> <JCHEM_PKA_STRONGEST_BASIC>
9.396082567807317

> <JCHEM_POLAR_SURFACE_AREA>
79.11

> <JCHEM_REFRACTIVITY>
56.20280000000001

> <JCHEM_ROTATABLE_BOND_COUNT>
3

> <JCHEM_RULE_OF_FIVE>
1

> <ALOGPS_SOLUBILITY>
1.36e+00 g/l

> <JCHEM_TRADITIONAL_IUPAC>
palladium(2+) (4S,5S,14R,15R)-10-acetyl-4-(2-carboxyethyl)-15-ethyl-2-(2-methoxy-2-oxoethyl)-5,9,14,19-tetramethyl-20-[(2-sulfoethyl)carbamoyl]-21,22,23,24-tetraazapentacyclo[16.2.1.1^{3,6}.1^{8,11}.1^{13,16}]tetracosa-1,3(24),6,8,10,12,16(22),17,19-nonaene-21,23-diide

> <JCHEM_VEBER_RULE>
0

> <DRUGBANK_ID>
DB00150

> <SECONDARY_ACCESSION_NUMBERS>
NUTR00058; EXPT02064

> <DRUG_GROUPS>
approved; nutraceutical; withdrawn

> <GENERIC_NAME>
Tryptophan

> <SYNONYMS>
(2S)-2-amino-3-(1H-indol-3-yl)propanoic acid; (S)-alpha-Amino-beta-(3-indolyl)-propionic acid; (S)-Tryptophan; (S)-α-amino-1H-indole-3-propanoic acid; L-(-)-Tryptophan; L-(−)-tryptophan; L-Tryptophan; L-β-3-indolylalanine; Triptofano; Trp; Tryptophan; Tryptophane; Tryptophanum; W

> <PRODUCTS>
2.5% Travasol Amino Acid Injection With Electrolytes In 10% Dextrose; 2.5% Travasol Amino Acid Injection With Electrolytes In 10% Dextrose Clinimix; 2.5% Travasol Amino Acid Injection Without Electrolytes In 10% Dextrose Quickmix; 2.5%travasol Amino Acid InJ.W.eleC.W.25%dex; 2.75% Travas. Amino Acid InJ.W.elecw.25%dex; 2.75% Travasol Amino Acid Injection With Electrolytes In 25% Dextrose Quickmix; 2.75% Travasol Amino Acid Injection With Electrolytes In 5% Dextrose Quickmix; 2.75%travasol Amino Acid InJ.W.eleC.W.5%dex.; 20% Prosol; 4.25% Amino Acid Injection Without Electrolytes In 20% Dextrose Quickmix; 4.25% Travasol Amino Acid Injection With Electrolytes In 10% Dextrose; 4.25% Travasol Amino Acid Injection With Electrolytes In 20% Dextrose; 4.25% Travasol Amino Acid Injection With Electrolytes In 20% Dextrose Quickmix; 4.25% Travasol Amino Acid Injection With Electrolytes In 25% Dextrose; 4.25% Travasol Amino Acid Injection With Electrolytes In 5% Dextrose Quickmix; 4.25% Travasol Amino Acid Injection Without Electrlytes In 10% Dextrose; 4.25% Travasol Amino Acid Injection Without Electrolytes In 20% Dextrose; 4.25% Travasol Amino Acid Injection Without Electrolytes In 25% Dextrose; 4.25% Travasol Amino Acid Without Electrolytes In 5% Dextrose Quickmix; 4.25%trav. Amino Acid InJ.W.O.elect.5%dext.; 4.25%travasol Amino Acid InJ.W.elecw.5%dex.; 5% Travasol Amino Acid Injection With Electrolytes In 20% Dextrose; 5% Travasol Amino Acid Injection Without Electrolytes In 20% Dextrose; 5% Travasol Amino Acid Injection Without Electrolytes In 25% Dextrose; 8.5% Freamine III; Aminosyn; Aminosyn 10% W Electrolytes; Aminosyn 3.5% M; Aminosyn 5%; Aminosyn 7%; Aminosyn 8.5%; Aminosyn 8.5% Injection With Electrolytes; Aminosyn HF; Aminosyn II; Aminosyn II 10% With Electrolytes; Aminosyn II 5% Inj; Aminosyn II 7% Injection; Aminosyn II 7% M In 10% Dextrose(dual Chamber); Aminosyn II 7% With 10% Dextrose; Aminosyn II 7% With 50% Dextrose; Aminosyn II 8.5% Injection; Aminosyn II 8.5% M In 20% Dextrose (dual Chamber); Aminosyn II 8.5% With 50% Dextrose; Aminosyn II In Dextrose Injection; Aminosyn II and Dextrose; Aminosyn II in Dextrose; Aminosyn II with Electrolytes; Aminosyn II with Electrolytes in Dextrose with Calcium; Aminosyn RF; Aminosyn RF Injection; Aminosyn Sulfite Free; Aminosyn-PF; Aminosyn-PF 10%; Aminosyn-PF 7%; Apo-tryptophan; Clinimix; Clinimix 2.5% Travasol Aa Without Electrolytes In 10% Dextrose Injec; Clinimix E; Clinisol; Dom-tryptophan; FreAmine HBC; FreAmine III; HepatAmine; Hepatasol; Kabiven; NephrAmine; Nephramine Liq IV; Novamine; Nutrineal Pd4; Olimel 3.3% E; Olimel 4.4%; Olimel 4.4% E; Olimel 5.7%; Olimel 5.7% E; Olimel 7.6%; Olimel 7.6% E; PHL-tryptophan; PMS-tryptophan; Perikabiven; Periolimel 2.5% E; Plenamine; Premasol - sulfite-free (Amino Acid); Primene; Primene 10%; Primene 10%-liq IV; ProSol; ProcalAmine; Quick Mix 2.5% Travasol Aa With Electrolytes With 25% Dextrose Injec; RenAmin; Renamin (amino Acids) Injection; Smofkabiven; Smofkabiven Electrolyte Free; Smofkabiven Extra Nitrogen; Smofkabiven Extra Nitrogen Electrolyte Free; Smofkabiven Peripheral; Synthamin; Teva-tryptophan; Travasol; Travasol Amino Acid Inj 5.5%; Travasol Amino Acid Inj 8.5%; Travasol E; Travasol Inj Without Electrolytes 5.5%; Travasol Inj Without Electrolytes 8.5%; TrophAmine; Tryptan Cap 500mg; Tryptan Tab 1000mg; Tryptan Tab 250mg; Tryptan Tab 500mg; Tryptan Tab 750mg; Vamin 18 Electrolyte-free; Vamin N

> <INTERNATIONAL_BRANDS>
Alti-Tryptophan

$$$$

  Mrv0541 09241312162D          

  7  6  0  0  0  0            999 V2000
    0.6124    0.2357    0.0000 C   0  0  0  0  0  0  0  0  0  0  0  0
   -0.1021   -0.1768    0.0000 C   0  0  2  0  0  0  0  0  0  0  0  0
   -0.8165    0.2357    0.0000 C   0  0  0  0  0  0  0  0  0  0  0  0
    1.3269   -0.1768    0.0000 O   0  0  0  0  0  0  0  0  0  0  0  0
    0.6124    1.0607    0.0000 O   0  0  0  0  0  0  0  0  0  0  0  0
   -0.1021   -1.0018    0.0000 N   0  0  0  0  0  0  0  0  0  0  0  0
   -1.5310   -0.1768    0.0000 S   0  0  0  0  0  0  0  0  0  0  0  0
  2  1  1  0  0  0  0
  5  1  2  0  0  0  0
  4  1  1  0  0  0  0
  3  2  1  0  0  0  0
  2  6  1  1  0  0  0
  7  3  1  0  0  0  0
M  END
> <DATABASE_ID>
DB00151

> <DATABASE_NAME>
drugbank

> <SMILES>
N[C@@H](CS)C(O)=O

> <INCHI_IDENTIFIER>
InChI=1S/C3H7NO2S/c4-2(1-7)3(5)6/h2,7H,1,4H2,(H,5,6)/t2-/m0/s1

> <INCHI_KEY>
XUJNEKJLAYXESH-REOHCLBHSA-N

> <FORMULA>
C3H7NO2S

> <MOLECULAR_WEIGHT>
121.158

> <EXACT_MASS>
121.019749163

> <JCHEM_ACCEPTOR_COUNT>
3

> <JCHEM_AVERAGE_POLARIZABILITY>
11.405322792266677

> <JCHEM_BIOAVAILABILITY>
1

> <JCHEM_DONOR_COUNT>
3

> <JCHEM_FORMAL_CHARGE>
0

> <JCHEM_GHOSE_FILTER>
0

> <JCHEM_IUPAC>
(2R)-2-amino-3-sulfanylpropanoic acid

> <ALOGPS_LOGP>
-2.57

> <JCHEM_LOGP>
-2.7921332976482773

> <ALOGPS_LOGS>
-0.72

> <JCHEM_MDDR_LIKE_RULE>
0

> <JCHEM_NUMBER_OF_RINGS>
0

> <JCHEM_PHYSIOLOGICAL_CHARGE>
0

> <JCHEM_PKA>
10.171891903949282

> <JCHEM_PKA_STRONGEST_ACIDIC>
2.345995198078135

> <JCHEM_PKA_STRONGEST_BASIC>
9.053809511128133

> <JCHEM_POLAR_SURFACE_AREA>
63.31999999999999

> <JCHEM_REFRACTIVITY>
28.2236

> <JCHEM_ROTATABLE_BOND_COUNT>
2

> <JCHEM_RULE_OF_FIVE>
1

> <ALOGPS_SOLUBILITY>
2.31e+01 g/l

> <JCHEM_TRADITIONAL_IUPAC>
L-cysteine

> <JCHEM_VEBER_RULE>
0

> <DRUGBANK_ID>
DB00151

> <SECONDARY_ACCESSION_NUMBERS>
NUTR00018; DB04443; DB09485

> <DRUG_GROUPS>
approved; nutraceutical

> <GENERIC_NAME>
Cysteine

> <SYNONYMS>
(2R)-2-amino-3-mercaptopropanoic acid; (2R)-2-amino-3-sulfanylpropanoic acid; (R)-2-Amino-3-mercaptopropanoic acid; Cisteina; Cisteinum; Cys; Cysteine; Cysteinum; Free Cysteine; L-2-Amino-3-mercaptopropionic acid; L-Cys; L-Cystein; L-Zystein

> <PRODUCTS>
8.5% Freamine III; Aminoderm Poudre; Aminosyn HF; Cicatrin Powder; Cysteine Hydrochloride; Distilpure Msm; Elcys; FreAmine HBC; FreAmine III; HepatAmine; Hepatasol; L Cysteine HCl Inj 50mg/ml; L-Cysteine Hydrochloride; Medi Msm (methyl Sulfonyl Methane); NephrAmine; Nephramine Liq IV; Nouress; Premasol - sulfite-free (Amino Acid); Primene; Primene 10%; Primene 10%-liq IV; ProcalAmine; TrophAmine; Vamin 18 Electrolyte-free; Vamin N

> <INTERNATIONAL_BRANDS>
Nouress

> <SALTS>
Cysteine hydrochloride

$$$$
152
  Mrv0541 02231214282D          

 18 19  0  0  0  0            999 V2000
    1.9050    0.8501    0.0000 S   0  0  0  0  0  0  0  0  0  0  0  0
    3.3643    2.9387    0.0000 O   0  0  0  0  0  0  0  0  0  0  0  0
    2.3175   -0.4194    0.0000 N   0  3  0  0  0  0  0  0  0  0  0  0
    3.7465   -2.8945    0.0000 N   0  0  0  0  0  0  0  0  0  0  0  0
    4.4610   -1.6570    0.0000 N   0  0  0  0  0  0  0  0  0  0  0  0
    2.3175   -2.8945    0.0000 N   0  0  0  0  0  0  0  0  0  0  0  0
    2.9849    0.0655    0.0000 C   0  0  0  0  0  0  0  0  0  0  0  0
    2.3175   -1.2445    0.0000 C   0  0  0  0  0  0  0  0  0  0  0  0
    2.7300    0.8501    0.0000 C   0  0  0  0  0  0  0  0  0  0  0  0
    3.2149    1.5175    0.0000 C   0  0  0  0  0  0  0  0  0  0  0  0
    3.0319   -1.6570    0.0000 C   0  0  0  0  0  0  0  0  0  0  0  0
    1.6500    0.0655    0.0000 C   0  0  0  0  0  0  0  0  0  0  0  0
    3.7696   -0.1894    0.0000 C   0  0  0  0  0  0  0  0  0  0  0  0
    2.8794    2.2713    0.0000 C   0  0  0  0  0  0  0  0  0  0  0  0
    3.0319   -2.4820    0.0000 C   0  0  0  0  0  0  0  0  0  0  0  0
    3.7465   -1.2445    0.0000 C   0  0  0  0  0  0  0  0  0  0  0  0
    4.4610   -2.4820    0.0000 C   0  0  0  0  0  0  0  0  0  0  0  0
    5.1754   -2.8945    0.0000 C   0  0  0  0  0  0  0  0  0  0  0  0
  1  9  1  0  0  0  0
  1 12  1  0  0  0  0
  2 14  1  0  0  0  0
  3  7  1  0  0  0  0
  3  8  1  0  0  0  0
  3 12  2  0  0  0  0
  4 15  2  0  0  0  0
  4 17  1  0  0  0  0
  5 16  1  0  0  0  0
  5 17  2  0  0  0  0
  6 15  1  0  0  0  0
  7  9  2  0  0  0  0
  7 13  1  0  0  0  0
  8 11  1  0  0  0  0
  9 10  1  0  0  0  0
 10 14  1  0  0  0  0
 11 15  1  0  0  0  0
 11 16  2  0  0  0  0
 17 18  1  0  0  0  0
M  CHG  1   3   1
M  END
> <DATABASE_ID>
DB00152

> <DATABASE_NAME>
drugbank

> <SMILES>
CC1=C(CCO)SC=[N+]1CC1=CN=C(C)N=C1N

> <INCHI_IDENTIFIER>
InChI=1S/C12H17N4OS/c1-8-11(3-4-17)18-7-16(8)6-10-5-14-9(2)15-12(10)13/h5,7,17H,3-4,6H2,1-2H3,(H2,13,14,15)/q+1

> <INCHI_KEY>
JZRWCGZRTZMZEH-UHFFFAOYSA-N

> <FORMULA>
C12H17N4OS

> <MOLECULAR_WEIGHT>
265.355

> <EXACT_MASS>
265.112306876

> <JCHEM_ACCEPTOR_COUNT>
4

> <JCHEM_AVERAGE_POLARIZABILITY>
28.144123736361827

> <JCHEM_BIOAVAILABILITY>
1

> <JCHEM_DONOR_COUNT>
2

> <JCHEM_FORMAL_CHARGE>
1

> <JCHEM_GHOSE_FILTER>
0

> <JCHEM_IUPAC>
3-[(4-amino-2-methylpyrimidin-5-yl)methyl]-5-(2-hydroxyethyl)-4-methyl-1,3-thiazol-3-ium

> <ALOGPS_LOGP>
-2.11

> <JCHEM_LOGP>
-3.0974126491384126

> <ALOGPS_LOGS>
-4.29

> <JCHEM_MDDR_LIKE_RULE>
0

> <JCHEM_NUMBER_OF_RINGS>
2

> <JCHEM_PHYSIOLOGICAL_CHARGE>
1

> <JCHEM_PKA>
19.255646949944182

> <JCHEM_PKA_STRONGEST_ACIDIC>
15.504603864004356

> <JCHEM_PKA_STRONGEST_BASIC>
5.537548442171222

> <JCHEM_POLAR_SURFACE_AREA>
75.91

> <JCHEM_REFRACTIVITY>
73.39970000000001

> <JCHEM_ROTATABLE_BOND_COUNT>
4

> <JCHEM_RULE_OF_FIVE>
1

> <ALOGPS_SOLUBILITY>
1.53e-02 g/l

> <JCHEM_TRADITIONAL_IUPAC>
thiamine

> <JCHEM_VEBER_RULE>
0

> <DRUGBANK_ID>
DB00152

> <SECONDARY_ACCESSION_NUMBERS>
NUTR00009; APRD00552; EXPT03222

> <DRUG_GROUPS>
approved; investigational; nutraceutical; vet_approved

> <GENERIC_NAME>
Thiamine

> <SYNONYMS>
Aneurin; Antiberiberi factor; Thiamin; Thiamine; thiamine(1+); thiamine(1+) ion; thiaminium; Thiaminum; Tiamina; Vitamin B1

> <PRODUCTS>
24 Multivitamins + Minerals; 50 Plus; 50 Plus Multiple Vitamins & Minerals; Acti-MN + B1 + C Caplet; Acti-thiamine Caplet 100mg; Active FE; Active OB; Adult Formula 50+; Adult Infuvite Multiple Vitamins; Advanced B & T Formula; Alertonic; Alkadrenergy Tablets; Allbee C 800 Tab; Allbee With C 550 Cap; Allbee With Vitamin C Cap; Alsimine W Vitamins A D; Am Caps; Animal Shapes; Animal Shapes w/Iron Chewtabs; Antlerviron; Appedrine; Avon Vitadvance Multi-kids Complete; AzesChew; Azesco; B 50 Capsules; B 6 Plus; B C Antistress Cap; B Complex 25mg Vitamin Supplement; B Complex 50 Vitamin Cap; B Complex 50+ Caplet; B Complex 500 Tab; B Complex Plus C 300mg Tab; B Complex Tablets; B Complex W C Forte Cap; B Complex W C and B12 Inj; B Complex W Vit C W Non-med Yeast&liver Tab; B Complex W Vitamin C Fortis Cap; B Complex With C 300mg; B Complex With C 300mg Tab; B Complex With C 550mg; B Compound 50mg Tab; B Plus C 300 mg; B Plus C 300mg Timed Release; B Stress C + Iron & Vite; B Totum 500; B Virol; B Vitamin Compound With B12 Thunas; B With C 500 Cap; B-1 Caps 500mg; B-100 Caps; B-100 Complex Tablets; B-100 Hi Potency B Vitamins Tab; B-100 Vitamin Supplement; B-50 Complex; B-50 Complex Tab; B-50 Hi Potency B Vitamins Tab; B-Combo; B-complex; B-complex 100; B-complex 50; B-complex Tab; B-complex Tablets; B-complex With Vitamin C, Biotin, Folic Acid; B-complex-50 Tab; B-plex; B-plex 100; B-plus - Tab; B1 400mg Ctr Tab; B1 Tab 100mg; B50 B Complex Tab; B50 Complex; B6 Plus Tab; Bacmin; Bal-Care DHA; Bal-Care DHA Essential; Balanced B 125 Srt; Balanced B-100 B-complex Vitamins Tab; Balanced B-100 Timed Release; Balanced B-50 B-complex Vitamins Tab; Balanced B-50 B-complex Vitamins, Timed Rele; Balanced B-50 Complex; Balanced B-complex Vit + Vit C&e Tab; Balanced B100; Balanced B50 Complex; Beminal 500 Tab; Beminal Fortis Elx; Beminal W C Fortis Inj; Beminal With C Fortis Cap; Beminal With C Fortis Pws; Betaxin; Betaxin Liq 100mg/ml; Bev 29 Tab; Bev B-150; Bewon Elixir; Bewon Elixir 0.05mg/ml; Biovim Tab; Biovita; Body Rox; Bugs Bunny Chew Multi Vit Plus Iron; Bugs Bunny and Friends Multiple Vitamins; C-B Complex; C-Nate DHA; C-force; C. Vit-min Formula; C.R.T. X Multivitamin & Mineral Powder Mix; Cal M Tab; Carbassist Tablets; Cavan Alpha; Cavan Folate DHA; Cavan Folate OB; Cavan Heme OB; Cavan Prenatal; Cavan-EC SOD DHA; Cc II; Cda-21 Vitamins With Non-medicinal Probiotic Complex; Cedevita Plus Vitamin Supplement; Cedevita Sugar-free Vitamin Supplement; Central-vite 18 Essential; Centratex; Century Complete; Chela Iron Plus C,b Complex; Chela Potassium Plus; Chela-chromium 200; Chela-manganese 50 Plus; Chew.multiple Vits.with Extra C for Children; Chewable Adult Multivitamins With Minerals; Chewable Children's Complete Multivitamins With Essential Minerals; Chewable Multiple Vit Plus Iron for Children; Chewable Multiple Vitamins Plus Extra C; Chewable Multiple Vitamins Plus Iron Tab; Chewable Multiple Vitamins Tab; Chewable Multiple Vitamins for Children; Chewable Multivitamins; Chewable Multivitamins Plus Iron; Children Choice Multivit Chewable Tab; Children Choice Multivitamin W Iron Chew Tab; Children's Chew Multi & Min Tab; Children's Chewable Multi Vit W Iron; Children's Chewable Multi Vitamins; Children's Chewable Multi Vitamins With Iron Tablets; Children's Chewable Multi-vitamin; Children's Chewable Multi-vitamin Complete With Minerals; Children's Chewable Multiple Vit.plus Iron; Children's Chewable Multiple Vitamins (chewable Tablets); Children's Chewable Multiple Vitamins - Tab; Children's Chewable Multiple Vitamins With Extra Vitamin C (chewable Tablets); Children's Chewable Multiple Vitamins With Iron Tablets (chewable Tablets); Children's Chewable Multivitamin Complete With Minerals; Children's Chewable Multivitamin and Multimineral; Children's Chewable Multivitamins With Minerals; Children's Chewable Multivitamins and Minerals; Children's Chewable Tab; Children's Chewable Vit and Min Tab; Children's Chewable With Iron; Children's Multivitamins; Children's Multivitamins With Iron; Children's Vitamins Chewable; Children's Vitamins W Iron Chewable; Childrens Chew Multi Vitamin Tab; Childrens Chewab Vitamin W Chel Minerals; Childrens Chewable Multiple Vitamins; Childrens Chewable Multiple Vitamins Plus Fe; Childrens Chewable Multiple Vitamins Tab; Childrens Chewable Multiple Vitamins W.iron; Childrens Chewable Multivitamins; Childrens Chewable Multivitamins W Iron; Childrens Chewable Tab; Childrens Chewable Vitamin Tab; Childrens Chewable Vitamins; Childrens Chewable Vitamins W Iron; Childrens Multiple Vit and Min Chew Tab; Choice OB DHA; Chromease Tab; CitraNatal 90 DHA; CitraNatal Assure; CitraNatal DHA; CitraNatal Essence; CitraNatal Rx; Classic Swiss One 10 Multivitamin and Mineral Tab; Complete Mega B; Complete Multivitamins and Minerals Tablets Timed Release; Complete Multivitamins and Minerals for Children; Complete Natal DHA; Complete-RF Prenatal; CompleteNate Chewable; Complex 5 - Pwr; Complex-75; Complexe B 75mg; Complexe B Compose 75; Complexe B-75; Concept DHA; Concept OB; Corvita; Corvite; Corvite Free; Croq-vit Pour Enfants; Cyroplex; D'pantothenic Acid-B1-B2 Tab; DaVITE; Daily Balance Tab; Daily Energy Brand B-complex; Daily-Vite; Dalivit; Deriton; Derma-force; Dermamed Nutrition for troubled skin; Dexatrim Tablets; Dexifol; Dexivite; Dia-vite; Dialyvite; Dialyvite 3000; Dialyvite 5000; Dialyvite Supreme D; Dialyvite with Zinc; Diaplex; Distilpure Msm; Doctor's Choice Brand for Men; Dothelle DHA; Duet DHA; Duet DHA 400; Duet DHA 400 ec; Duet DHA Balanced; DuetDHA Balanced; DuetDHA Complete; Dynam Ampoule Et Tablet; E.S.T. Complex; Earthpals Children's Chewables Multi-vitamin & Mineral Tablets; Edge OB; Efferlife Multivitamins and Minerals; Elite OB Prenatal Multivitamin; Ellis Tonic; Enrich Core Pack - Children Vitamin and Mineral Supplement; Envirocomplex; Enviroflex - Tab; Escavite; Escavite D; Escavite Lq; Essential B Tablets; Essential Vitamins and Minerals; Everyday Multiple Vitamins; Everyday Multiple Vitamins With Iron; Extra Once A Day; Extra P.N. Vitamin-mineral Drink Mix; Fem Time Tab; Feminique W Iron and Calcium Tab; Ferra Naka Plus Vitamins; Fibrik; Fizz Multivitamins for Kids W C Loz; Flinstones Multiple Plus Iron; Flintstones Multiple Vitamins; Flintstones Multiple Vitamins Plus Iron; Flintstones Multiple Vitamins Tab; Flintstones W Extra C Tab; Floradix Formula Liq; Floravit - Syr; Floriva; Floriva Plus; Focalgin 90 DHA; Focalgin CA; Folet DHA; Folic-K; Folica BE; Folica-V; Folika-NC; Folika-T; Folika-V; Folivane-OB; Folivane-Plus with Ascorbic Acid Precursors; Foltabs Prenatal; Foltabs Prenatal Plus DHA; For Kids Only Chewable Multivit. Plus Iron; For Kids Only Chewable Multivitamins; For Kids Only Chewable Multivitamins - Tab; For-2; Formula B; Formula D.S.; Formula F L W; Formula Fm Vitamins & Minerals Tab; Formula Gly; Formula Gm; Formula Hh; Formula Lf; Formula O.C.; Formula Pro-B; Fortamines 10 Capsules; Fortamines-10 Comprimes; Fortaplex Inj; Fortistress Tab; Forty Plus Vitamin Supplement; G.A.S. Complex; Garfield Chewable Multivitamins Tab; Garfield Chewable Multivits Plus Iron Tab; Gemvites Jr Tab Chewable; Genicin Vita-Q; Genicin Vita-S; Geritol Liquid; Gestamine Comprimes; Gesticare DHA; Glyco Lite Ect; Glyco Plus Ect; Glyco-aide Tab; Grand Master Formula Tab; Great Day/am Formula Tab; Gtf Support Caplet; Gtf-vitamin-minerals & Pancreatin Tab; Gynedyn Tab; Harvest Of Values All B Complex Tab; Hemarexin Amp; Hemarexin Liquid and Drinkable Ampoules; Hemarexin Tab; HemeNatal OB; HemeNatal OB plus DHA; Hemocyte Plus; Hi Potency B Complex W Chelated Minerals; Hi Potency B52 B Complex Tab; Hi Potency Balanced B-100 Complex - Tab; Hi Potency Multi Tab; Hi Potency Stress B Tension With C; High Potency Multivitamins & Minerals Caplets; High Potency Vitamin B Complex + C Tab; Hill.vite; Hormodausse Plus Calc Et D Tab; Hylavite; Hylazinc; Hypo Vites Tab; Hyporyl - Tab; INATAL Ultra; Iberet 500; Inatal Advance; Infa Drops Multivitamins; Infant Multivitamin Drops; Infantol Drops; Infuvite Adult Multiple Vitamins; Innersource Tab; Insur-all Vitamin Supplement; Integra Plus; Iron 25mg With Vit B-cmplx, Vit C, Cu & Mo; Iron Polysaccharides Folic Acid DHA; Iron, Vit & Min Supp; Irospan 24/6; Isotonix Multitech Vitamin Mineral Supplemen; Jenliva; Junior Multi Vitamins - Regular; K.L. Vitamin-mineral; Kanga Sport Vitamins B & C Plus Minerals; Kanga-B Vitamin B Group + C; Kanga-V Multivitamins & Minerals; Kanga-kid Multi-vitamin & Mineral; Kanga-kid Vitamins & Iron; Kaydia Patch; Kenwood Liquid Supplement; Kid's Choice Children's Chewable Vitamins - Tab; Kids Stuff Tablets; Kids Stuff With Iron Tablets; Kimchi Vitamin chewable multivitamin; Kindervites; L-Methyl PNV DHA; L.C. Supplement; L.G.I.T.; Leritone Junior; Lexazin; Lipo-B-C Tab; Lipotropic Ctr; Lipovite; Liqui B Complex; Liqui B Complex Plus; Liqui Infant Vitamins; Liqui Vita; Liquid B Complex 50; Livron Plus Ampoule; Livron Plus Tab; Lorid; Low Potency B Complex Tab; Luna Vitamin and Mineral Bar for Women; Lysamine Diet Supp Amp-tab; M-Natal Plus; M.V.I. 12; M.V.I. Adult; M.V.I. Paediatric; M.V.I. Pediatric; M.V.I.-12; MVC-Fluoride; MYNEPHROCAPS DIALYSIS/STRESS Vitamin Supplement; Magnum-75 Vitamin and Mineral Supplement; Maintain Multiple Vitamin & Minerals; Maltlevol 12 Liq; Maltlevol Liq; Mangadyn; Manganese 50mg Plus B1 & E Tab; Marnatal F; Master Key Multi Vitamin Multi Mineral Formula 2; Materna; Materna - Tab; Materna-tab; Maxi 10 Tab; Maxi 6 Liq; Maximum Once A Day; Maxine Vitamin and Mineral Supplement; Mebolic; Medi Msm (methyl Sulfonyl Methane); Mega 13 Multivitamin Formula; Mega Balance; Mega Capsules; Mega Plex III - Pck; Mega Plex IV - Pck; Mega Vitaminerals; Mega-vim 75 With Beta-carotene - Tablets; Megavite Rx; Megavites Tab; Men's; Men's 50+; Men's Biomultiple Vitamin and Mineral Supplement; Men's Multi Master Formula; Meplex T 750; Methaver; Milltrium Senior Vitamin and Mineral Supplement; Mini-B Tab; Moms Choice Rx; Mor-vites Tab; Multi #2; Multi - N.T.O.x Formula - Tab; Multi 1000; Multi 12 Injection; Multi B; Multi Enfants Tab; Multi II IV Vi Tab; Multi Nt-OX; Multi Plex I - Tab; Multi Plex II - Tab; Multi Pro; Multi Rol; Multi Tabs; Multi Vitamin & Minerals; Multi Vitamin - Mineral; Multi Vitamin Drops with Fluoride; Multi Vitamin Drops with Fluoride and Iron; Multi Vitamin Drops with Fluoride with Iron; Multi Vitamin Plus Iron; Multi Vitamin and Fluoride; Multi Vitamin and Mineral vitamin; Multi Vitamin with Fluoride; Multi Vitamin, Iron and Fluoride; Multi Vitamin-mineral Formula; Multi Vitamines - Liq; Multi Vitamins & Minerals; Multi Vite Liq Adult; Multi Vite Liq Junior; Multi-11; Multi-12 Pediatric; Multi-12/k1 Pediatric; Multi-Nate 30; Multi-Vit with Fluoride; Multi-Vit with Fluoride and Iron; Multi-Vitamin; Multi-Vitamin Drops with Fluoride and Iron; Multi-Vitamin Fluoride; Multi-Vitamin Fluoride Drops; Multi-Vitamin Fluoride and Iron Drops; Multi-Vitamin With Fluoride; Multi-Vitamin with Fluoride; Multi-actin; Multi-force for Women Tab; Multi-kid; Multi-phyto Capsules; Multi-vitamin Dietary Supplement; Multi-vitamines Enfants Comprime; Multi-vitamins; Multi-vitamins With Minerals; MultiVitamin Drops with Fluoride and Iron; MultiVitamin with Fluoride; MultiVitamin with Fluoride Chewable; MultiVitamin with Fluoride Drops; MultiVitamin, Iron and Fluoride Drops; Multicaps; Multinate DHA; Multinate DHA Extra; Multipack II; Multiple Vit Plus Iron Tab; Multiple Vitamin Plus Minerals Tab; Multiple Vitamin Tab; Multiple Vitamins; Multiple Vitamins & Minerals Tablets; Multiple Vitamins - Tablet; Multiple Vitamins Childrens Chewable; Multiple Vitamins Plus Iron - Tab; Multiple Vitamins Plus Iron Tab; Multiple Vitamins Plus Iron for Women; Multiple Vitamins Tab; Multiple Vitamins W Iron Tab; Multiple Vitamins W Minerals Tab; Multiple Vitamins With Iron; Multiple Vitamins With Iron Tablets; Multiple Vitamins With Minerals Tablets; Multiple Vitamins and Minerals; Multiple Vitamins and Minerals Capsules; Multiple Vitamins and Minerals Tab; Multisol; Multitabs; Multivit Et Fer Ampoules Et Comprimes; Multivit with Fluoride; Multivit-liq; Multivitamin; Multivitamin & Minerals (iron Free); Multivitamin & Multimineral; Multivitamin Drops with Fluoride; Multivitamin with Fluoride; Multivitamin with fluoride; Multivitamine; Multivitamines; Multivitamines Et Mineraux; Multivitamines Et Mineraux Junior Regulier; Multivitamines Et Mineraux Reguliers / Regular Multivitamins and Minerals; Multivitamines Plus Fer Pour Enfants (chewable Tablets); Multivitamines Pour Enfants (chewable Tablets); Multivitamins; Multivitamins W Iron; Multivitamins W Minerals Extra Strength; Multivitamins and Minerals - Complete; Multivitamins and Minerals Tablets; Multivitamins and Minerals With Betacarotene Tablets; Multivitamins and Minerals for Men; Multivitamins and Minerals for Women; Multivitamins and Minerals for Young Men; Multivitamins and Minerals for Young Women; Multivitamins and Multiminerals Formula Regular Tablet; Multivitamins for Children; Multra Plex; Multra With Iron; Mvc; Mvc 9 Plus 3 Inj; Mvc 9+4 Inj; Myhephron Dialysis and Stress Supplement; N.E.U. Complex; NEONATAL Complete; NESTABS ABC Prenatal Multi-vitamin/Mineral Supplement with DHA/EPA; NESTABS DHA Prenatal Multi-vitamin/Mineral Supplement with DHA/EPA; NESTABS Prenatal Multi-vitamin/Mineral Supplement; Nata Komplete; NataChew; NataFort; Natal-V RX Multi-vitamin/Multi-mineral; Natalvirt 90dha; Natalvirt Ca; Natavite; Natural Source Spectrum With Beta Carotene; Neo Bex Elixir; Neo Vites Tab; Neo-bex; Neo-bex Injectable; Neo-vites & Minerals Tab; Neomultivite; Neonatal DHA; Neonatal Plus Vitamin; Neonatal Vitamin; Neonatal19; NephPlex Rx; Nephrocaps; Nephrocaps-QT; Nephron FA; NeuroBion; New Chapter's D'adamo 4 Your Type Multiple for Type O; Niva-Plus; NovaFerrum Multivitamin with Iron Pediatric Drops; NovaMV Multivitamin; Nrg Plus Liq; Numark Multivitamins; Nutra Boost; Nutra-clear; Nutri-Tab OB; Nutri-Tab OB plus DHA; Nutrifer Plus Tablets; Nutrilite Double X; Nutrol-B-complex; O-Cal FA multivitamin; O-Cal Prenatal Vitamin; OB Complete 400; OB Complete DHA; OB Complete Petite; OB Complete Prenatal; Olympian Multi Vit Plus Minerals Tab; Omega-3 Rx Complete; Omniquin; Omnivex; Onccor; Oncovite; One A Day Advance Adults; One A Day Advance Adults 50+; One A Day Advance Fem; One A Day Multiple Vit W Minerals; One A Day Tab; One Daily Vitamin and Mineral Dietary Supplement; One Per Day Vitamin and Mineral Dietary Supplement; One Tablet Daily Mens Formula; One-A-day Advance Fem - Tablets; One-A-day Advance Men's; Only One - Tablet; Opti-manganese + B1 + C Caplet; Orange Flavored Crystal Chews Tab; Orifer F; Original Bioscal Forte Multi-vitamin Supplement Capsules; Orti B; Osteo-force; P.N. Vitamin-mineral Drink; P.N.P. Vitamin Drink; P.R.O. Complex; PM Caps; PNV Ferrous Fumarate Docusate Folic Acid; PNV Prenatal Plus Multivitamin; PNV Prenatal Vitamin; PNV Prenatal Vitamin Plus Vitamin A; PNV Tabs 29-1; PNV-First; PNV-Select; PR Natal 400; PR Natal 400 ec; PR Natal 430; PR Natal 430 ec; Paire OB Plus DHA; Palm Springs Multvit and Min Tab; Paramettes Adults; Paramettes Chewable Multivitamins Plus Iron; Paramettes Chewable Multivits With Iron Tab; Paramettes Multivits Plus Iron Tab (teens); Paramettes Syrup; Pediatric Infuvite Multiple Vitamins; Pediatric Infuvite Multiple Vitamins for Infusion; Penta-thion Pwr; Permathene-12 - Caplet; Phosthenine Vitamines Et Fer (ampoules Buvable); Phytofortis + Calcium A-D; Phytoplex B Liq; Phytopure; Phytovim Cap; Ply Vi Sol Chewable Tab; Pnv Ob DHA; Pnv-OB-dha; Pnv-VP-U; Poly Vi Flor Chewable Tab; Poly-VI-sol Drops; Poly-Vi-Flor; Poly-Vi-Flor with Iron; Poly-Vi-Sol; Poly-Vitamin with Fluoride; Polymine Avec Zinc Et Cuivre; Potassium Plus Vit B Complex; Pre-Tabs DHA Prenatal Multi-vitamin/Mineral Supplement with DHA/EPA; PreGen DHA; PreNatal 19; PreNatal Vitamins Plus; PrePLUS; PreQue 10; PreTAB; Prefera OB plus DHA; PreferaOB; PreferaOB plus DHA; Pregvit; Pregvit Folic 4; Pregvit Folic 5; Premium Prenatal; Premium Prenatal - Tablets; Prena1; Prena1 Plus; Prenara; Prenatabs FA; Prenatal; Prenatal Formula Tab; Prenatal Mega Antioxidant; Prenatal Plus; Prenatal Plus Iron; Prenatal Plus Multivitamin Plus DHA MiniCaps; Prenatal Supplement - Tab; Prenatal Vi-min; Prenatal Vitamin and Mineral Supplement; Prenatal Vitamin and Mineral Supplement -tab; Prenatal Vitamin and Mineral Supplement Tab; Prenatal Vitamins Plus; Prenatal Vitamins Plus Low Iron; Prenatal Vitamins and Minerals Tablets; Prenatal and Post Partum Supplement; Prenatal, DHA; Prenate Elite; Prenate Star; Prenatrix; Prenatryl; Prenatvite; Prenatvite Complete; Prenatvite Plus; Preplus; Prevital Tab; Prim - Royal P.M.T.; Pro Hers Vanilla; Pro His Mint; Puralor; PureFe OB Plus; PureFe Plus; PureVit DualFe Plus; Q.T. #4 Vitamin and Mineral Dietary Supplement; Q.T. Vitamin and Mineral Drink Mix; Quflora FE; Quflora FE Pediatric Drops; Quflora Pediatric; Quflora Pediatric Drops; RE FAC-x; RE Nata; RE Nata OB; RE Prenatal Multivitamin with Iron; Re Ob 90 DHA; Reaphirm Plant Source DHA; Relnate DHA; Renal Caps Dialysis/Stress Vitamin Supplement; Renate; Renate DHA; Reno Caps; Replavite; Revit Multi-vitamins and Minerals; Revit Plus Cap; Revit Tab; Revitalize Multi-vitamin and Mineral Complex; Revitex Ampoules Et Comprimes; Revival 1 Tab; Right Choice A.M. Multi Formula - Caplet; Se-Care Conceive; Se-Natal; Se-Natal 19; Se-Natal 19 Chewable; Se-Natal One; Se-Plete DHA; Se-Tan PLUS; Select OB; Select-OB Plus DHA Prenatal Supplement Plus DHA; Senior Multi One; SetonET; SetonET-EC; Sibergin B - Cap; Somarexin and C 1000; Somavit Brand Vitamins and Minerals Complex; Sopalamine 3b Plus; Sopalamine/3b Plus C; Sopalamine/3b Tab; Spectrum 2 Cap; Spectrum Performa Multivitamins and Minerals Tablets; Stress B & C Caplet; Stress B Capsules With Vitamin C; Stress B Complex With C and E Tab; Stress B Complex With C, E & Iron; Stress B Complex With C, E and Iron Tab; Stress B Complex With C,e, Zinc and Copper; Stress B With 1000 Mg Vitamin C; Stress B&c Tab; Stress B-complex Plus Iron With Vitamins C&e; Stress Complex 600 Avec Vit E Cuivre Zinc; Stress Ctr Srt; Stress Formula; Stress Formula + Iron; Stress Formula B-comp + 500mg Vit C Tab; Stress Formula Multi-B Comp + 500mg Vit C Cap; Stress Formula Multivitamin Tablets USP; Stress Formula Tab; Stress Formula Vit B With C Complex; Stress Forte Plus Lipotropic Factors; Stress Tab; Stress Tab With Iron and Vitamin E; Stress Tab With Zinc, Copper and Vitamin E; Stress Tablets; Stress Vitamin B With C Complex Tablets; Stressmates; Stresstabs + Zinc-copper; Strovite Forte Caplet; Strovite One Caplets; Sun-rype Vitaburst; Super B Compound W 500mg Vit C; Super Charged Energy; Super Daily No 2; Super Kids Chewable Multivitamin Multimineral (chewable Tablets); Super Multi; Super Pantoplex; Super Stress Capsules; Super Stress Mega B Plus 1000mg Vit C Tab; Super Vita Vim Multivitamins and Minerals; Super Vita-vim With Beta-carotene - Tab; Super Vitalex Ampoule Buvable; Super-pote Vitamin Supplement; Supplement De Multivitamines Infusion Arome Fruits Rouges; Supravite 10ml Ampoule; Supravite Bouteille 250ml; Supravite C 1000; Supravite Pour Enfants; Supravite Stress Avec Vit E; Supravite Stress Avec Vit E Cuivre Et Zinc; Supravite Stress Avec Vit E Et Fer; Surbex 500 Filmtab; Surbex-500 With Iron; Surbex-500 With Zinc; Swical-energy 3e Age; Swical-energy-2; Swiss One; Swiss One Multi Vit & Chel Min Tab; Swiss One Multivitamin and Mineral Caplet; Swiss One Timed Release Tab; Swiss Total One; Synergistic Manganese Cap; Synergistic Manganese Capsules; T.R.I. B-plex Src; TL-Care DHA; TL-Fluorivite; TL-Folate; TRONVite; Tandem OB; Tandem Plus; Taron-C DHA; Tender Age Multi Vitamins; Tendera-OB; Thiamiject Injection - Liq Im IV 100mg/ml; Thiamine; Thiamine HCL 100 mg; Thiamine HCl 100mg W C 20mg; Thiamine HCl Inj 100mg/ml; Thiamine HCl Injection - Liq 100mg/ml; Thiamine HCl Tab 100mg; Thiamine HCl Tab 25mg; Thiamine HCl Tab 50mg; Thiamine Hydrochloride; Thiamine Hydrochloride Inj 100mg/ml; Thiamine Hydrochloride Inj 100mg/ml USP; Thiamine Hydrochloride Injection USP, 100mg/ml; Thiamine Hydrochloride Injection, USP; Thrivite 19; Thrivite Rx; Time Release B 100 Compound - Tablet; Timed Release B Complex 100 Srt; Timed Release B-complex 100; Timed Release B-complex 50; Timed Release Vita-vim Srt; Tini-cal Ampoules; Toni Com Liq; Tonicol Et A-D-C Ampoules/comprimes; Tonimol Cap Liq; Total Living Concepts Formula One - Tab; Totalvit Plus; TriAdvance; TriStart DHA; Tricare Prenatal; Tricare Prenatal 2-part Daily Prenatal Vitamin System; Tricare Prenatal Compleat; Tricare Prenatal DHA One; Tricare Prenatal DHA One Rx Multivitamin; Tricare Prenatal DHA One With Folate; Tricare Prenatal Quick Dissolve; Trinatal GT; Trinatal Rx 1; Trinatal Ultra; Trinaz; TriphroCaps; Triveen-Duo DHA; Twin Ultra Liquid Fruit Punch Flavor; Twin Ultra Liquid Grape Flavor; Twin Ultra Liquid Lemon-lime Flavor; Twin Ultra Liquid Orange Flavor; Ultimate OB DHA; Ultra Enerforce; Ultra Hr; Usana Megavitamin Tablets - Tab; V & M Vitamin and Mineral Supplement; V-Natal; VIL-Rx; VP-Vite Rx; Vasculine; Vasodyn Tab; Vasula Tab; Vc II; Vege 1 Daily Tab; Vege Swiss One Multivitamin W Chel Mins Tab; Vena-Bal DHA; Viamon Ampoules Et Comprimes; Vigem 12 Liquid; Vigo Multivitamins Drops/lozenge; Vimeral Tab; Vinacal; Vinate AZ; Virt Nate; Virt Vite GT; Virt-Advance; Virt-Bal DHA Plus; Virt-C DHA; Virt-Caps; Virt-Nate; Virt-Nate DHA; Virt-PN; Virt-Pn; Virt-Tabs; Virt-Vite Plus; Vit B Complex Ctr; Vit B Complex Plus Vit C 550mg; Vit B1 Ctr Srt 100mg; Vit-HA Multi Vitamin and Zinc Supplement; Vita B + C 500 Tab; Vita B Complex Tab; Vita Balance 2000; Vita Day Tab; Vita Plex Tab; Vita Vim Multivitamins and Minerals Tab; Vita Vim With Beta Carotene-caplet; Vita-B; Vita-B-75 Cap; Vita-Rx Diabetic Vitamin; Vita-amine Cap 100mg; Vita-vim - Tab; Vita-vim With Beta-carotene - Tab; Vita-worth B-complex Tablets; VitaPhil Aide; VitaXyme; Vitabanks Vitamin Tab; Vitachrom Gc; Vitaday Junior Tab; Vitaday Tab; Vitafant; Vitafer - Liq; Vitaflex Dietary Suplement; Vitafol Caplet; Vitafol Fe Plus; Vitafol OB Caplet; Vitafol One; Vitafol Plus; Vitafol Ultra; Vitafol-OB Plus DHA Prenatal Supplement Plus DHA; Vital Be-100; Vital-D Rx; Vitalife - Capsule; Vitamin & Mineral Formula 1 Dietary Supplement; Vitamin B + C Cap; Vitamin B Complex; Vitamin B Complex + C 300mg Cap; Vitamin B Complex + C 600mg Tab; Vitamin B Complex 100; Vitamin B Complex 100 Tab; Vitamin B Complex 50; Vitamin B Complex Plus 300mg Vitamin C; Vitamin B Complex Plus C 300mg Timed Release; Vitamin B Complex Suppl; Vitamin B Complex Tab; Vitamin B Complex W C 300mg Tab; Vitamin B Complex W C Tab; Vitamin B Compound Tab; Vitamin B Compound W C Tab 500mg; Vitamin B Compound W Vit C 250mg Tab; Vitamin B Compound With Vitamin C Fortis Capsule Dtc; Vitamin B Cpd W Vit C Tab; Vitamin B Tablets; Vitamin B-1 100 Mg Tablets; Vitamin B-1 Thiamine HCl 100mg; Vitamin B-Complex; Vitamin B1; Vitamin B1 100 mg; Vitamin B1 100mg; Vitamin B1 100mg Tablet; Vitamin B1 Tab 100mg; Vitamin B1 Tab 100mg USP; Vitamin B1 Tab 2mg USP; Vitamin B1 Tablets 100mg; Vitamin and Mineral Supplement - Liq; Vitamine 110 Liq; Vitamine B1 100 Mg - Tablet; Vitamine B1 Tab 100mg USP; Vitamine Du Groupe B Plus Fer - Liq; Vitamines Et Mineraux; Vitamines Et Mineraux Comprimes; Vitamines Et Mineraux Enfants 970; Vitamines Pour Bebes Et Enfants; Vitaphil 90 DHA; Vitaphil DHA; Vitaplex; Vitasure; Vitazyme; Vitogen B Stress C Vit E Zinc & Cop; Vitogen B Stress C600; Vitogen Multiple Vitamins Tab; Vitrexate; Vitrexate FE; Vitrexyl; Vitrexyl plus Iron; Viva CT Prenatal; Viva Kids - Tab; Vol-Care Rx; Vol-Nate; Vol-Plus; Vol-Tab Rx; Vp-heme Ob; Vp-heme Ob DHA; Vp-pnv-dha; Vtb Vitamin and Mineral Supplement; Vyo Cylate - Pwr; Vyqua; Wellness Formula; WesTab Plus; WestGel DHA; Women's Biomultiple Vitamin and Mineral Supplement; Women's Change Formula; Women's Formula; Xvite; Xyzbac; Xyzbac G; Z Bec Tab; Zalvit; Zatean-Pn; Zavitrol; Zoo Chews; Zoo Chews Plus Iron; Zyvit; ahoSAN; bioJET; healthy mamaBE WELL ROUNDED BE WELL ROUNDED; hormaSAN forte; tensioSAN; vitaMedMD One Rx; vitaMedMD Rx Plus

> <INTERNATIONAL_BRANDS>
Betalin S; Biamine

> <SALTS>
Thiamine chloride; Thiamine hydrochloride; Thiamine mononitrate

$$$$
153
  Mrv0541 02231214282D          

 31 33  0  0  1  0            999 V2000
    1.6500   -3.9985    0.0000 O   0  0  0  0  0  0  0  0  0  0  0  0
    4.5080    0.9517    0.0000 C   0  0  2  0  0  0  0  0  0  0  0  0
    5.2886    1.2030    0.0000 C   0  0  2  0  0  0  0  0  0  0  0  0
    4.5080    0.1266    0.0000 C   0  0  1  0  0  0  0  0  0  0  0  0
    5.7701    0.5391    0.0000 C   0  0  0  0  0  0  0  0  0  0  0  0
    5.2886   -0.1247    0.0000 C   0  0  0  0  0  0  0  0  0  0  0  0
    3.7935    1.3642    0.0000 C   0  0  0  0  0  0  0  0  0  0  0  0
    5.5449    1.9872    0.0000 C   0  0  2  0  0  0  0  0  0  0  0  0
    3.7935   -0.2859    0.0000 C   0  0  0  0  0  0  0  0  0  0  0  0
    4.5080    1.7767    0.0000 C   0  0  0  0  0  0  0  0  0  0  0  0
    3.0791    0.9517    0.0000 C   0  0  0  0  0  0  0  0  0  0  0  0
    3.0791    0.1266    0.0000 C   0  0  0  0  0  0  0  0  0  0  0  0
    4.9939    2.6013    0.0000 C   0  0  0  0  0  0  0  0  0  0  0  0
    6.3522    2.1574    0.0000 C   0  0  0  0  0  0  0  0  0  0  0  0
    3.7935   -1.1109    0.0000 C   0  0  0  0  0  0  0  0  0  0  0  0
    6.6086    2.9416    0.0000 C   0  0  0  0  0  0  0  0  0  0  0  0
    3.0791   -1.5234    0.0000 C   0  0  0  0  0  0  0  0  0  0  0  0
    7.4158    3.1117    0.0000 C   0  0  1  0  0  0  0  0  0  0  0  0
    3.0791   -2.3484    0.0000 C   0  0  0  0  0  0  0  0  0  0  0  0
    7.6721    3.8959    0.0000 C   0  0  0  0  0  0  0  0  0  0  0  0
    2.3645   -2.7609    0.0000 C   0  0  0  0  0  0  0  0  0  0  0  0
    7.9668    2.4977    0.0000 C   0  0  0  0  0  0  0  0  0  0  0  0
    3.7935   -2.7609    0.0000 C   0  0  0  0  0  0  0  0  0  0  0  0
    2.3645   -3.5859    0.0000 C   0  0  2  0  0  0  0  0  0  0  0  0
    3.7935   -3.5859    0.0000 C   0  0  0  0  0  0  0  0  0  0  0  0
    3.0791   -3.9985    0.0000 C   0  0  0  0  0  0  0  0  0  0  0  0
    7.1211    4.5100    0.0000 C   0  0  0  0  0  0  0  0  0  0  0  0
    8.4794    4.0660    0.0000 C   0  0  0  0  0  0  0  0  0  0  0  0
    4.5080   -2.3484    0.0000 C   0  0  0  0  0  0  0  0  0  0  0  0
    5.9406    1.3054    0.0000 H   0  0  0  0  0  0  0  0  0  0  0  0
    4.5779   -0.5297    0.0000 H   0  0  0  0  0  0  0  0  0  0  0  0
 24  1  1  6  0  0  0
  2  3  1  0  0  0  0
  2  4  1  0  0  0  0
  2  7  1  0  0  0  0
  2 10  1  1  0  0  0
  3  5  1  0  0  0  0
  3  8  1  0  0  0  0
  3 30  1  6  0  0  0
  4  6  1  0  0  0  0
  4  9  1  0  0  0  0
  4 31  1  6  0  0  0
  5  6  1  0  0  0  0
  7 11  1  0  0  0  0
  8 13  1  6  0  0  0
  8 14  1  0  0  0  0
  9 12  1  0  0  0  0
  9 15  2  0  0  0  0
 11 12  1  0  0  0  0
 14 16  2  0  0  0  0
 15 17  1  0  0  0  0
 16 18  1  0  0  0  0
 17 19  2  0  0  0  0
 18 20  1  0  0  0  0
 18 22  1  1  0  0  0
 19 21  1  0  0  0  0
 19 23  1  0  0  0  0
 20 27  1  0  0  0  0
 20 28  1  0  0  0  0
 21 24  1  0  0  0  0
 23 25  1  0  0  0  0
 23 29  2  0  0  0  0
 24 26  1  0  0  0  0
 25 26  1  0  0  0  0
M  END
> <DATABASE_ID>
DB00153

> <DATABASE_NAME>
drugbank

> <SMILES>
CC(C)[C@@H](C)\C=C\[C@@H](C)[C@@]1([H])CC[C@@]2([H])\C(CCC[C@]12C)=C\C=C1\C[C@@H](O)CCC1=C

> <INCHI_IDENTIFIER>
InChI=1S/C28H44O/c1-19(2)20(3)9-10-22(5)26-15-16-27-23(8-7-17-28(26,27)6)12-13-24-18-25(29)14-11-21(24)4/h9-10,12-13,19-20,22,25-27,29H,4,7-8,11,14-18H2,1-3,5-6H3/b10-9+,23-12+,24-13-/t20-,22+,25-,26+,27-,28+/m0/s1

> <INCHI_KEY>
MECHNRXZTMCUDQ-RKHKHRCZSA-N

> <FORMULA>
C28H44O

> <MOLECULAR_WEIGHT>
396.6484

> <EXACT_MASS>
396.33921603

> <JCHEM_ACCEPTOR_COUNT>
1

> <JCHEM_AVERAGE_POLARIZABILITY>
50.73329446982394

> <JCHEM_BIOAVAILABILITY>
1

> <JCHEM_DONOR_COUNT>
1

> <JCHEM_FORMAL_CHARGE>
0

> <JCHEM_GHOSE_FILTER>
0

> <JCHEM_IUPAC>
(1S,3Z)-3-{2-[(1R,3aS,4E,7aR)-1-[(2R,3E,5R)-5,6-dimethylhept-3-en-2-yl]-7a-methyl-octahydro-1H-inden-4-ylidene]ethylidene}-4-methylidenecyclohexan-1-ol

> <ALOGPS_LOGP>
7.59

> <JCHEM_LOGP>
7.050558194333334

> <ALOGPS_LOGS>
-5.96

> <JCHEM_MDDR_LIKE_RULE>
0

> <JCHEM_NUMBER_OF_RINGS>
3

> <JCHEM_PHYSIOLOGICAL_CHARGE>
0

> <JCHEM_PKA_STRONGEST_ACIDIC>
18.384341369959035

> <JCHEM_PKA_STRONGEST_BASIC>
-1.3184890847799178

> <JCHEM_POLAR_SURFACE_AREA>
20.23

> <JCHEM_REFRACTIVITY>
128.88969999999998

> <JCHEM_ROTATABLE_BOND_COUNT>
5

> <JCHEM_RULE_OF_FIVE>
0

> <ALOGPS_SOLUBILITY>
4.33e-04 g/l

> <JCHEM_TRADITIONAL_IUPAC>
ergocalciferol

> <JCHEM_VEBER_RULE>
1

> <DRUGBANK_ID>
DB00153

> <SECONDARY_ACCESSION_NUMBERS>
NUTR00005; APRD00426

> <DRUG_GROUPS>
approved; nutraceutical

> <GENERIC_NAME>
Ergocalciferol

> <SYNONYMS>
(3β,5Z,7E,22E)-9,10-secoergosta-5,7,10(19),22-tetraen-3-ol; (5Z,7E,22E)-(3S)-9,10-seco-5,7,10(19),22-ergostatetraen-3-ol; (5Z,7E,22E)-(3S)-9,10-secoergosta-5,7,10(19),22-tetraen-3-ol; Activated ergosterol; Ercalciol; Ergocalciférol; Ergocalciferol; Ergocalciferolum; Oleovitamin D2; Viosterol; Vitamin D2; Vitamina D2

> <PRODUCTS>
Aquasol A & D Drops; Cal/mag 2:1 With D; Calcium Chelate Plus Vit D; Calcium Citrate W Vitamin D Tab; Calcium Magnesium 2:1 Tablets With Vitamin D; Calcium Magnesium Avec Vitamine D Et Zinc; Calcium Magnesium Plus Vitamin D Liquid; Calcium Mg and Zn Capsules With Vitamin D; Calcium With Vitamin D2; Calcium With Vitamins C and D Tab; Calcium and Magnesium Citrate With Vitamin D; Chewable Adult Multivitamins With Minerals; Children Pediatric Vitamins Drops; Childrens Chewable Multiple Vitamins Tab; D-forte; Deriton; Drisdol; Ergocalciferol; Ergocalciferol Capsules,; Formula EC; Infant's Multiple Vitamin Drops; Infants' Vitamin Drops; Insur-all Vitamin Supplement; Kanga-V Multivitamins & Minerals; Kenwood Liquid Supplement; M.V.I. Adult; M.V.I. Pediatric; M.V.I.-12; Magnum-75 Vitamin and Mineral Supplement; Maxi 10 Tab; Maxi 6 Liq; Multiple Vitamin Plus Minerals Tab; Multiple Vitamins; Multiple Vitamins With Iron; Multivitamins W Minerals Extra Strength; Mvc 9 Plus 3 Inj; Mvc 9+4 Inj; Olympian Multi Vit Plus Minerals Tab; Onccor; One A Day Tab; Osto-D2; Paramettes Syrup; Radiostol Cap 50000iu; Sandoz D-forte; Se-Natal; Sopalamine/3b Plus C; Super Vita Vim Multivitamins and Minerals; Swical-energy 3e Age; Tender Age Multi Vitamins; Timed Release Vita-vim Srt; Vege 1 Daily Tab; Vita Vim Multivitamins and Minerals Tab; VitaXyme; Vitamin D; Vitamin D 400 I.U. Tablets; Vitamines Pour Bebes Et Enfants; Vitazyme; Zoo Chews

> <INTERNATIONAL_BRANDS>
Deltalin

$$$$
5280581
  Mrv0541 02231214292D          

 22 21  0  0  0  0            999 V2000
    1.6500    2.6813    0.0000 O   0  0  0  0  0  0  0  0  0  0  0  0
    3.0790    2.6813    0.0000 O   0  0  0  0  0  0  0  0  0  0  0  0
    3.7935   -0.2063    0.0000 C   0  0  0  0  0  0  0  0  0  0  0  0
    3.0790    0.2063    0.0000 C   0  0  0  0  0  0  0  0  0  0  0  0
    3.7935   -1.0313    0.0000 C   0  0  0  0  0  0  0  0  0  0  0  0
    3.0790    1.0313    0.0000 C   0  0  0  0  0  0  0  0  0  0  0  0
    4.5080   -1.4438    0.0000 C   0  0  0  0  0  0  0  0  0  0  0  0
    2.3645    1.4438    0.0000 C   0  0  0  0  0  0  0  0  0  0  0  0
    7.3659    1.0313    0.0000 C   0  0  0  0  0  0  0  0  0  0  0  0
    6.6515    1.4438    0.0000 C   0  0  0  0  0  0  0  0  0  0  0  0
    7.3659    0.2063    0.0000 C   0  0  0  0  0  0  0  0  0  0  0  0
    6.6515    2.2688    0.0000 C   0  0  0  0  0  0  0  0  0  0  0  0
    4.5080   -2.2688    0.0000 C   0  0  0  0  0  0  0  0  0  0  0  0
    5.2224   -2.6813    0.0000 C   0  0  0  0  0  0  0  0  0  0  0  0
    8.0804   -0.2063    0.0000 C   0  0  0  0  0  0  0  0  0  0  0  0
    2.3645    2.2688    0.0000 C   0  0  0  0  0  0  0  0  0  0  0  0
    5.9370    2.6813    0.0000 C   0  0  0  0  0  0  0  0  0  0  0  0
    5.9370   -2.2688    0.0000 C   0  0  0  0  0  0  0  0  0  0  0  0
    8.0804   -1.0313    0.0000 C   0  0  0  0  0  0  0  0  0  0  0  0
    7.3659   -1.4438    0.0000 C   0  0  0  0  0  0  0  0  0  0  0  0
    6.6515   -2.6813    0.0000 C   0  0  0  0  0  0  0  0  0  0  0  0
    7.3659   -2.2688    0.0000 C   0  0  0  0  0  0  0  0  0  0  0  0
  1 16  1  0  0  0  0
  2 16  2  0  0  0  0
  3  4  1  0  0  0  0
  3  5  1  0  0  0  0
  4  6  1  0  0  0  0
  5  7  1  0  0  0  0
  6  8  1  0  0  0  0
  7 13  1  0  0  0  0
  8 16  1  0  0  0  0
  9 10  1  0  0  0  0
  9 11  1  0  0  0  0
 10 12  1  0  0  0  0
 11 15  1  0  0  0  0
 12 17  1  0  0  0  0
 13 14  2  0  0  0  0
 14 18  1  0  0  0  0
 15 19  2  0  0  0  0
 18 21  1  0  0  0  0
 19 20  1  0  0  0  0
 20 22  1  0  0  0  0
 21 22  2  0  0  0  0
M  END
> <DATABASE_ID>
DB00154

> <DATABASE_NAME>
drugbank

> <SMILES>
CCCCC\C=C/C\C=C/C\C=C/CCCCCCC(O)=O

> <INCHI_IDENTIFIER>
InChI=1S/C20H34O2/c1-2-3-4-5-6-7-8-9-10-11-12-13-14-15-16-17-18-19-20(21)22/h6-7,9-10,12-13H,2-5,8,11,14-19H2,1H3,(H,21,22)/b7-6-,10-9-,13-12-

> <INCHI_KEY>
HOBAELRKJCKHQD-QNEBEIHSSA-N

> <FORMULA>
C20H34O2

> <MOLECULAR_WEIGHT>
306.4828

> <EXACT_MASS>
306.255880332

> <JCHEM_ACCEPTOR_COUNT>
2

> <JCHEM_AVERAGE_POLARIZABILITY>
39.01409630612153

> <JCHEM_BIOAVAILABILITY>
0

> <JCHEM_DONOR_COUNT>
1

> <JCHEM_FORMAL_CHARGE>
0

> <JCHEM_GHOSE_FILTER>
0

> <JCHEM_IUPAC>
(8Z,11Z,14Z)-icosa-8,11,14-trienoic acid

> <ALOGPS_LOGP>
7.24

> <JCHEM_LOGP>
6.9490924676666666

> <ALOGPS_LOGS>
-6.60

> <JCHEM_MDDR_LIKE_RULE>
0

> <JCHEM_NUMBER_OF_RINGS>
0

> <JCHEM_PHYSIOLOGICAL_CHARGE>
-1

> <JCHEM_PKA_STRONGEST_ACIDIC>
4.885823686047827

> <JCHEM_POLAR_SURFACE_AREA>
37.3

> <JCHEM_REFRACTIVITY>
98.83739999999999

> <JCHEM_ROTATABLE_BOND_COUNT>
15

> <JCHEM_RULE_OF_FIVE>
0

> <ALOGPS_SOLUBILITY>
7.71e-05 g/l

> <JCHEM_TRADITIONAL_IUPAC>
dihomo-gamma-linolenic acid

> <JCHEM_VEBER_RULE>
0

> <DRUGBANK_ID>
DB00154

> <SECONDARY_ACCESSION_NUMBERS>
NUTR00032

> <DRUG_GROUPS>
investigational; nutraceutical

> <GENERIC_NAME>
Dihomo-gamma-linolenic acid

> <SYNONYMS>
(8Z,11Z,14Z)-Icosatrienoic acid; (Z,Z,Z)-8,11,14-Eicosatrienoic acid; (Z,Z,Z)-8,11,14-Icosatrienoate; (Z,Z,Z)-8,11,14-Icosatrienoic acid; 20:3, n-6,9,12 all-cis; 8,11,14-Eicosatrienoic Acid; 8c,11c,14c-eicosatrienoic acid; 8c,11c,14c-Eicosatriensäure; all-cis-8,11,14-eicosatrienoic acid; all-cis-8,11,14-icosatrienoic acid; all-cis-eicosa-8,11,14-trienoic acid; all-cis-Eicosa-8,11,14-triensäure; all-cis-icosa-8,11,14-trienoic acid; C20:3, n-6,9,12 all-cis; cis,cis,cis-8,11,14-eicosatrienoic acid; DGLA; dihomo-γ-linolenic acid; eicosa-8Z,11Z,14Z-trienoic acid; gamma-Homolinolenic acid; Homo-gamma-linolenic acid; Homo-gamma-linolensäure; Homo-γ-linolensäure

> <INTERNATIONAL_BRANDS>
Star GLA; Tona-lean 1000 CLA

> <SALTS>
Sodium dihomo-gamma-linolenate

$$$$

  Mrv1652309121709232D          

 12 11  0  0  1  0            999 V2000
    5.8559    2.5559    0.0000 C   0  0  0  0  0  0  0  0  0  0  0  0
    5.1414    2.1434    0.0000 C   0  0  0  0  0  0  0  0  0  0  0  0
    4.4270    2.5559    0.0000 C   0  0  1  0  0  0  0  0  0  0  0  0
    3.7125    2.1434    0.0000 C   0  0  0  0  0  0  0  0  0  0  0  0
    2.9980    2.5559    0.0000 O   0  0  0  0  0  0  0  0  0  0  0  0
    3.7125    1.3184    0.0000 O   0  0  0  0  0  0  0  0  0  0  0  0
    4.4270    3.3809    0.0000 N   0  0  0  0  0  0  0  0  0  0  0  0
    6.5704    2.1434    0.0000 C   0  0  0  0  0  0  0  0  0  0  0  0
    7.2849    2.5559    0.0000 N   0  0  0  0  0  0  0  0  0  0  0  0
    7.9993    2.1434    0.0000 C   0  0  0  0  0  0  0  0  0  0  0  0
    8.7138    2.5559    0.0000 O   0  0  0  0  0  0  0  0  0  0  0  0
    7.9993    1.3184    0.0000 N   0  0  0  0  0  0  0  0  0  0  0  0
  1  2  1  0  0  0  0
  2  3  1  0  0  0  0
  3  4  1  0  0  0  0
  4  5  2  0  0  0  0
  4  6  1  0  0  0  0
  3  7  1  1  0  0  0
  1  8  1  0  0  0  0
  8  9  1  0  0  0  0
  9 10  1  0  0  0  0
 10 11  2  0  0  0  0
 10 12  1  0  0  0  0
M  END
> <DATABASE_ID>
DB00155

> <DATABASE_NAME>
drugbank

> <SMILES>
N[C@@H](CCCNC(N)=O)C(O)=O

> <INCHI_IDENTIFIER>
InChI=1S/C6H13N3O3/c7-4(5(10)11)2-1-3-9-6(8)12/h4H,1-3,7H2,(H,10,11)(H3,8,9,12)/t4-/m0/s1

> <INCHI_KEY>
RHGKLRLOHDJJDR-BYPYZUCNSA-N

> <FORMULA>
C6H13N3O3

> <MOLECULAR_WEIGHT>
175.1857

> <EXACT_MASS>
175.095691297

> <JCHEM_ACCEPTOR_COUNT>
4

> <JCHEM_ATOM_COUNT>
25

> <JCHEM_AVERAGE_POLARIZABILITY>
17.34757818367823

> <JCHEM_BIOAVAILABILITY>
1

> <JCHEM_DONOR_COUNT>
4

> <JCHEM_FORMAL_CHARGE>
0

> <JCHEM_GHOSE_FILTER>
0

> <JCHEM_IUPAC>
(2S)-2-amino-5-(carbamoylamino)pentanoic acid

> <ALOGPS_LOGP>
-3.27

> <JCHEM_LOGP>
-3.9319578381140263

> <ALOGPS_LOGS>
-0.90

> <JCHEM_MDDR_LIKE_RULE>
0

> <JCHEM_NUMBER_OF_RINGS>
0

> <JCHEM_PHYSIOLOGICAL_CHARGE>
0

> <JCHEM_PKA>
15.333969157335531

> <JCHEM_PKA_STRONGEST_ACIDIC>
2.2682474980163243

> <JCHEM_PKA_STRONGEST_BASIC>
9.225134668659093

> <JCHEM_POLAR_SURFACE_AREA>
118.43999999999998

> <JCHEM_REFRACTIVITY>
41.329

> <JCHEM_ROTATABLE_BOND_COUNT>
5

> <JCHEM_RULE_OF_FIVE>
1

> <ALOGPS_SOLUBILITY>
2.18e+01 g/l

> <JCHEM_TRADITIONAL_IUPAC>
L-citrulline

> <JCHEM_VEBER_RULE>
0

> <DRUGBANK_ID>
DB00155

> <SECONDARY_ACCESSION_NUMBERS>
NUTR00021

> <DRUG_GROUPS>
investigational; nutraceutical

> <GENERIC_NAME>
Citrulline

> <SYNONYMS>
(S)-2-Amino-5-ureidopentanoic acid; 2-Amino-5-ureidovaleric acid; alpha-amino-delta-Ureidovaleric acid; Cit; Citrulina; Citrulline; delta-Ureidonorvaline; L-2-Amino-5-ureidovaleric acid; L-Citrulline; N(5)-(Aminocarbonyl)-L-ornithine; N(delta)-Carbamylornithine; N5-(Aminocarbonyl)ornithine; N5-Carbamoyl-L-ornithine; N5-carbamoylornithine; α-amino-δ-ureidovaleric acid; δ-ureidonorvaline

> <PRODUCTS>
Lipovite; tensioSAN

> <SALTS>
Citrulline malate

$$$$

  Mrv0541 09241312372D          

  8  7  0  0  0  0            999 V2000
    0.7145    0.9281    0.0000 O   0  0  0  0  0  0  0  0  0  0  0  0
    0.7145    0.1031    0.0000 C   0  0  0  0  0  0  0  0  0  0  0  0
    1.4289   -0.3094    0.0000 O   0  0  0  0  0  0  0  0  0  0  0  0
    0.0000   -0.3094    0.0000 C   0  0  1  0  0  0  0  0  0  0  0  0
    0.0000   -1.1344    0.0000 N   0  0  0  0  0  0  0  0  0  0  0  0
   -0.7145    0.1031    0.0000 C   0  0  2  0  0  0  0  0  0  0  0  0
   -0.7145    0.9281    0.0000 O   0  0  0  0  0  0  0  0  0  0  0  0
   -1.4289   -0.3094    0.0000 C   0  0  0  0  0  0  0  0  0  0  0  0
  2  1  2  0  0  0  0
  3  2  1  0  0  0  0
  4  2  1  0  0  0  0
  4  5  1  1  0  0  0
  6  4  1  0  0  0  0
  6  7  1  1  0  0  0
  6  8  1  0  0  0  0
M  END
> <DATABASE_ID>
DB00156

> <DATABASE_NAME>
drugbank

> <SMILES>
C[C@@H](O)[C@H](N)C(O)=O

> <INCHI_IDENTIFIER>
InChI=1S/C4H9NO3/c1-2(6)3(5)4(7)8/h2-3,6H,5H2,1H3,(H,7,8)/t2-,3+/m1/s1

> <INCHI_KEY>
AYFVYJQAPQTCCC-GBXIJSLDSA-N

> <FORMULA>
C4H9NO3

> <MOLECULAR_WEIGHT>
119.1192

> <EXACT_MASS>
119.058243159

> <JCHEM_ACCEPTOR_COUNT>
4

> <JCHEM_AVERAGE_POLARIZABILITY>
11.078258022254149

> <JCHEM_BIOAVAILABILITY>
1

> <JCHEM_DONOR_COUNT>
3

> <JCHEM_FORMAL_CHARGE>
0

> <JCHEM_GHOSE_FILTER>
0

> <JCHEM_IUPAC>
(2S,3R)-2-amino-3-hydroxybutanoic acid

> <ALOGPS_LOGP>
-3.01

> <JCHEM_LOGP>
-3.4709635238772347

> <ALOGPS_LOGS>
0.60

> <JCHEM_MDDR_LIKE_RULE>
0

> <JCHEM_NUMBER_OF_RINGS>
0

> <JCHEM_PHYSIOLOGICAL_CHARGE>
0

> <JCHEM_PKA>
14.953369305664726

> <JCHEM_PKA_STRONGEST_ACIDIC>
2.207432028688761

> <JCHEM_PKA_STRONGEST_BASIC>
9.002504827404067

> <JCHEM_POLAR_SURFACE_AREA>
83.55

> <JCHEM_REFRACTIVITY>
26.4598

> <JCHEM_ROTATABLE_BOND_COUNT>
2

> <JCHEM_RULE_OF_FIVE>
1

> <ALOGPS_SOLUBILITY>
4.77e+02 g/l

> <JCHEM_TRADITIONAL_IUPAC>
L-threonine

> <JCHEM_VEBER_RULE>
0

> <DRUGBANK_ID>
DB00156

> <SECONDARY_ACCESSION_NUMBERS>
NUTR00057

> <DRUG_GROUPS>
approved; nutraceutical

> <GENERIC_NAME>
Threonine

> <SYNONYMS>
(2S,3R)-(-)-Threonine; (2S)-threonine; 2-Amino-3-hydroxybutyric acid; L-(-)-Threonine; L-2-Amino-3-hydroxybutyric acid; L-alpha-amino-beta-hydroxybutyric acid; L-Threonin; L-Threonine; L-α-amino-β-hydroxybutyric acid; Thr; Threonine; Threoninum; Treonina

> <PRODUCTS>
2.5% Travasol Amino Acid Injection With Electrolytes In 10% Dextrose; 2.5% Travasol Amino Acid Injection With Electrolytes In 10% Dextrose Clinimix; 2.5% Travasol Amino Acid Injection Without Electrolytes In 10% Dextrose Quickmix; 2.5%travasol Amino Acid InJ.W.eleC.W.25%dex; 2.75% Travas. Amino Acid InJ.W.elecw.25%dex; 2.75% Travasol Amino Acid Injection With Electrolytes In 25% Dextrose Quickmix; 2.75% Travasol Amino Acid Injection With Electrolytes In 5% Dextrose Quickmix; 2.75%travasol Amino Acid InJ.W.eleC.W.5%dex.; 20% Prosol; 4.25% Amino Acid Injection Without Electrolytes In 20% Dextrose Quickmix; 4.25% Travasol Amino Acid Injection With Electrolytes In 10% Dextrose; 4.25% Travasol Amino Acid Injection With Electrolytes In 20% Dextrose; 4.25% Travasol Amino Acid Injection With Electrolytes In 20% Dextrose Quickmix; 4.25% Travasol Amino Acid Injection With Electrolytes In 25% Dextrose; 4.25% Travasol Amino Acid Injection With Electrolytes In 5% Dextrose Quickmix; 4.25% Travasol Amino Acid Injection Without Electrlytes In 10% Dextrose; 4.25% Travasol Amino Acid Injection Without Electrolytes In 20% Dextrose; 4.25% Travasol Amino Acid Injection Without Electrolytes In 25% Dextrose; 4.25% Travasol Amino Acid Without Electrolytes In 5% Dextrose Quickmix; 4.25%trav. Amino Acid InJ.W.O.elect.5%dext.; 4.25%travasol Amino Acid InJ.W.elecw.5%dex.; 5% Travasol Amino Acid Injection With Electrolytes In 20% Dextrose; 5% Travasol Amino Acid Injection Without Electrolytes In 20% Dextrose; 5% Travasol Amino Acid Injection Without Electrolytes In 25% Dextrose; 8.5% Freamine III; Aminoderm Poudre; Aminosyn; Aminosyn 10% W Electrolytes; Aminosyn 3.5% M; Aminosyn 5%; Aminosyn 7%; Aminosyn 8.5%; Aminosyn 8.5% Injection With Electrolytes; Aminosyn HF; Aminosyn II; Aminosyn II 10% With Electrolytes; Aminosyn II 5% Inj; Aminosyn II 7% Injection; Aminosyn II 7% M In 10% Dextrose(dual Chamber); Aminosyn II 7% With 10% Dextrose; Aminosyn II 7% With 50% Dextrose; Aminosyn II 8.5% Injection; Aminosyn II 8.5% M In 20% Dextrose (dual Chamber); Aminosyn II 8.5% With 50% Dextrose; Aminosyn II In Dextrose Injection; Aminosyn II and Dextrose; Aminosyn II in Dextrose; Aminosyn II with Electrolytes; Aminosyn II with Electrolytes in Dextrose with Calcium; Aminosyn RF; Aminosyn RF Injection; Aminosyn Sulfite Free; Aminosyn-PF; Aminosyn-PF 10%; Aminosyn-PF 7%; Cicatrin Powder; Clinimix; Clinimix 2.5% Travasol Aa Without Electrolytes In 10% Dextrose Injec; Clinimix E; Clinisol; FreAmine HBC; FreAmine III; HepatAmine; Hepatasol; Kabiven; NephrAmine; Nephramine Liq IV; Novamine; Nutrineal Pd4; Olimel 3.3% E; Olimel 4.4%; Olimel 4.4% E; Olimel 5.7%; Olimel 5.7% E; Olimel 7.6%; Olimel 7.6% E; Perikabiven; Periolimel 2.5% E; Plenamine; Premasol - sulfite-free (Amino Acid); Primene; Primene 10%; Primene 10%-liq IV; ProSol; ProcalAmine; Quick Mix 2.5% Travasol Aa With Electrolytes With 25% Dextrose Injec; RenAmin; Renamin (amino Acids) Injection; Smofkabiven; Smofkabiven Electrolyte Free; Smofkabiven Extra Nitrogen; Smofkabiven Extra Nitrogen Electrolyte Free; Smofkabiven Peripheral; Synthamin; Travasol; Travasol Amino Acid Inj 5.5%; Travasol Amino Acid Inj 8.5%; Travasol E; Travasol Inj Without Electrolytes 5.5%; Travasol Inj Without Electrolytes 8.5%; TrophAmine; Vamin 18 Electrolyte-free; Vamin N

$$$$
157
  Mrv0541 02231214292D          

 44 48  0  0  1  0            999 V2000
    6.9922    1.8744    0.0000 P   0  0  1  0  0  0  0  0  0  0  0  0
    8.4135    2.0213    0.0000 P   0  0  2  0  0  0  0  0  0  0  0  0
    4.9010    0.4187    0.0000 O   0  0  0  0  0  0  0  0  0  0  0  0
   11.3032    2.2426    0.0000 O   0  0  0  0  0  0  0  0  0  0  0  0
    3.8647    2.2851    0.0000 O   0  0  0  0  0  0  0  0  0  0  0  0
    2.8071    0.8348    0.0000 O   0  0  0  0  0  0  0  0  0  0  0  0
   10.2050    0.4119    0.0000 O   0  0  0  0  0  0  0  0  0  0  0  0
   11.9898    0.2212    0.0000 O   0  0  0  0  0  0  0  0  0  0  0  0
    6.3238    1.3906    0.0000 O   0  0  0  0  0  0  0  0  0  0  0  0
    9.1667    1.6844    0.0000 O   0  0  0  0  0  0  0  0  0  0  0  0
    7.6604    2.3582    0.0000 O   0  0  0  0  0  0  0  0  0  0  0  0
    7.4759    1.2061    0.0000 O   0  0  0  0  0  0  0  0  0  0  0  0
    8.7504    2.7744    0.0000 O   0  0  0  0  0  0  0  0  0  0  0  0
    6.5084    2.5427    0.0000 O   0  0  0  0  0  0  0  0  0  0  0  0
    8.0766    1.2682    0.0000 O   0  0  0  0  0  0  0  0  0  0  0  0
   14.3756    0.0175    0.0000 O   0  0  0  0  0  0  0  0  0  0  0  0
    3.8597   -0.6191    0.0000 N   0  0  0  0  0  0  0  0  0  0  0  0
   12.7226    1.8597    0.0000 N   0  0  0  0  0  0  0  0  0  0  0  0
    3.8597   -1.9469    0.0000 N   0  0  0  0  0  0  0  0  0  0  0  0
    2.3645   -0.4580    0.0000 N   0  0  0  0  0  0  0  0  0  0  0  0
    1.6500   -1.6955    0.0000 N   0  0  0  0  0  0  0  0  0  0  0  0
    2.3645   -2.9330    0.0000 N   0  0  0  0  0  0  0  0  0  0  0  0
   15.4392    0.9718    0.0000 N   0  0  0  0  0  0  0  0  0  0  0  0
    4.1182    1.5000    0.0000 C   0  0  1  0  0  0  0  0  0  0  0  0
    3.6321    0.8334    0.0000 C   0  0  2  0  0  0  0  0  0  0  0  0
    4.9025    1.2437    0.0000 C   0  0  1  0  0  0  0  0  0  0  0  0
    4.1159    0.1652    0.0000 C   0  0  1  0  0  0  0  0  0  0  0  0
   10.7582    1.0241    0.0000 C   0  0  1  0  0  0  0  0  0  0  0  0
   11.5785    0.9364    0.0000 C   0  0  2  0  0  0  0  0  0  0  0  0
   10.5880    1.8314    0.0000 C   0  0  1  0  0  0  0  0  0  0  0  0
   11.9154    1.6895    0.0000 C   0  0  1  0  0  0  0  0  0  0  0  0
    5.5707    1.7275    0.0000 C   0  0  0  0  0  0  0  0  0  0  0  0
    9.8349    2.1682    0.0000 C   0  0  0  0  0  0  0  0  0  0  0  0
    3.0790   -0.8705    0.0000 C   0  0  0  0  0  0  0  0  0  0  0  0
   13.2737    1.2456    0.0000 C   0  0  0  0  0  0  0  0  0  0  0  0
    4.3411   -1.2830    0.0000 C   0  0  0  0  0  0  0  0  0  0  0  0
   12.9790    2.6438    0.0000 C   0  0  0  0  0  0  0  0  0  0  0  0
    3.0790   -1.6955    0.0000 C   0  0  0  0  0  0  0  0  0  0  0  0
   14.0809    1.4157    0.0000 C   0  0  0  0  0  0  0  0  0  0  0  0
   14.3372    2.1999    0.0000 C   0  0  0  0  0  0  0  0  0  0  0  0
   13.7862    2.8140    0.0000 C   0  0  0  0  0  0  0  0  0  0  0  0
    2.3645   -2.1080    0.0000 C   0  0  0  0  0  0  0  0  0  0  0  0
   14.6319    0.8017    0.0000 C   0  0  0  0  0  0  0  0  0  0  0  0
    1.6500   -0.8705    0.0000 C   0  0  0  0  0  0  0  0  0  0  0  0
  1  9  1  0  0  0  0
  1 11  1  0  0  0  0
  1 12  1  6  0  0  0
  1 14  2  0  0  0  0
  2 10  1  0  0  0  0
  2 11  1  0  0  0  0
  2 13  1  1  0  0  0
  2 15  2  0  0  0  0
  3 26  1  0  0  0  0
  3 27  1  0  0  0  0
  4 30  1  0  0  0  0
  4 31  1  0  0  0  0
 24  5  1  6  0  0  0
 25  6  1  6  0  0  0
 28  7  1  6  0  0  0
 29  8  1  6  0  0  0
  9 32  1  0  0  0  0
 10 33  1  0  0  0  0
 16 43  2  0  0  0  0
 27 17  1  1  0  0  0
 17 34  1  0  0  0  0
 17 36  1  0  0  0  0
 31 18  1  1  0  0  0
 18 35  1  0  0  0  0
 18 37  1  0  0  0  0
 19 36  2  0  0  0  0
 19 38  1  0  0  0  0
 20 34  2  0  0  0  0
 20 44  1  0  0  0  0
 21 42  1  0  0  0  0
 21 44  2  0  0  0  0
 22 42  1  0  0  0  0
 23 43  1  0  0  0  0
 24 25  1  0  0  0  0
 24 26  1  0  0  0  0
 25 27  1  0  0  0  0
 26 32  1  1  0  0  0
 28 29  1  0  0  0  0
 28 30  1  0  0  0  0
 29 31  1  0  0  0  0
 30 33  1  1  0  0  0
 34 38  1  0  0  0  0
 35 39  2  0  0  0  0
 37 41  2  0  0  0  0
 38 42  2  0  0  0  0
 39 40  1  0  0  0  0
 39 43  1  0  0  0  0
 40 41  1  0  0  0  0
M  END
> <DATABASE_ID>
DB00157

> <DATABASE_NAME>
drugbank

> <SMILES>
NC(=O)C1=CN(C=CC1)[C@@H]1O[C@H](CO[P@](O)(=O)O[P@](O)(=O)OC[C@H]2O[C@H]([C@H](O)[C@@H]2O)N2C=NC3=C(N)N=CN=C23)[C@@H](O)[C@H]1O

> <INCHI_IDENTIFIER>
InChI=1S/C21H29N7O14P2/c22-17-12-19(25-7-24-17)28(8-26-12)21-16(32)14(30)11(41-21)6-39-44(36,37)42-43(34,35)38-5-10-13(29)15(31)20(40-10)27-3-1-2-9(4-27)18(23)33/h1,3-4,7-8,10-11,13-16,20-21,29-32H,2,5-6H2,(H2,23,33)(H,34,35)(H,36,37)(H2,22,24,25)/t10-,11-,13-,14-,15-,16-,20-,21-/m1/s1

> <INCHI_KEY>
BOPGDPNILDQYTO-NNYOXOHSSA-N

> <FORMULA>
C21H29N7O14P2

> <MOLECULAR_WEIGHT>
665.441

> <EXACT_MASS>
665.124771695

> <JCHEM_ACCEPTOR_COUNT>
16

> <JCHEM_AVERAGE_POLARIZABILITY>
57.65192655578967

> <JCHEM_BIOAVAILABILITY>
0

> <JCHEM_DONOR_COUNT>
8

> <JCHEM_FORMAL_CHARGE>
0

> <JCHEM_GHOSE_FILTER>
0

> <JCHEM_IUPAC>
[({[(2R,3S,4R,5R)-5-(6-amino-9H-purin-9-yl)-3,4-dihydroxyoxolan-2-yl]methoxy}(hydroxy)phosphoryl)oxy]({[(2R,3S,4R,5R)-5-(3-carbamoyl-1,4-dihydropyridin-1-yl)-3,4-dihydroxyoxolan-2-yl]methoxy})phosphinic acid

> <ALOGPS_LOGP>
-1.45

> <JCHEM_LOGP>
-6.471755840083135

> <ALOGPS_LOGS>
-2.35

> <JCHEM_MDDR_LIKE_RULE>
1

> <JCHEM_NUMBER_OF_RINGS>
5

> <JCHEM_PHYSIOLOGICAL_CHARGE>
-2

> <JCHEM_PKA>
1.7855441775406575

> <JCHEM_PKA_STRONGEST_ACIDIC>
-7.0347696301673475

> <JCHEM_PKA_STRONGEST_BASIC>
4.996693627326843

> <JCHEM_POLAR_SURFACE_AREA>
317.61999999999995

> <JCHEM_REFRACTIVITY>
142.99969999999996

> <JCHEM_ROTATABLE_BOND_COUNT>
11

> <JCHEM_RULE_OF_FIVE>
0

> <ALOGPS_SOLUBILITY>
2.95e+00 g/l

> <JCHEM_TRADITIONAL_IUPAC>
NADH

> <JCHEM_VEBER_RULE>
0

> <DRUGBANK_ID>
DB00157

> <SECONDARY_ACCESSION_NUMBERS>
NUTR00041; DB01907; EXPT02287; DB03527

> <DRUG_GROUPS>
approved; nutraceutical

> <GENERIC_NAME>
NADH

> <SYNONYMS>
1,4-dihydronicotinamide adenine dinucleotide; DPNH; NAD reduced form; Nicotinamide adenine dinucleotide (reduced); Nicotinamide-adenine dinucleotide, reduced; Reduced nicotinamide adenine diphosphate; Reduced nicotinamide-adenine dinucleotide

> <PRODUCTS>
BumP DHA; EnBrace HR; EnLyte; Folika-V; Genicin Vita-Q; Lexazin; Mebolic; Omniquin; Omnivex; PramLyte; VitaXyme; Vitazyme; Xyzbac; Xyzbac G; Zavitrol; Zyvit

$$$$
158
  Mrv0541 02231214292D          

 32 34  0  0  1  0            999 V2000
   12.8598    0.2286    0.0000 O   0  0  0  0  0  0  0  0  0  0  0  0
    9.9988    1.0426    0.0000 O   0  0  0  0  0  0  0  0  0  0  0  0
   12.1501   -1.0116    0.0000 O   0  0  0  0  0  0  0  0  0  0  0  0
   12.8502    2.7036    0.0000 O   0  0  0  0  0  0  0  0  0  0  0  0
   11.4213    2.6981    0.0000 O   0  0  0  0  0  0  0  0  0  0  0  0
    3.5220   -0.2286    0.0000 O   0  0  0  0  0  0  0  0  0  0  0  0
   10.7180   -0.1921    0.0000 N   0  0  0  0  0  0  0  0  0  0  0  0
    7.1504   -1.4434    0.0000 N   0  0  0  0  0  0  0  0  0  0  0  0
    4.9740   -1.0250    0.0000 N   0  0  0  0  0  0  0  0  0  0  0  0
    3.5220   -2.7036    0.0000 N   0  0  0  0  0  0  0  0  0  0  0  0
    4.9740   -2.7322    0.0000 N   0  0  0  0  0  0  0  0  0  0  0  0
    2.8075   -1.4661    0.0000 N   0  0  0  0  0  0  0  0  0  0  0  0
    2.0930   -2.7036    0.0000 N   0  0  0  0  0  0  0  0  0  0  0  0
   11.4309    0.2231    0.0000 C   0  0  1  0  0  0  0  0  0  0  0  0
   11.4277    1.0481    0.0000 C   0  0  0  0  0  0  0  0  0  0  0  0
   12.1406    1.4634    0.0000 C   0  0  0  0  0  0  0  0  0  0  0  0
   10.0019    0.2176    0.0000 C   0  0  0  0  0  0  0  0  0  0  0  0
    9.2890   -0.1977    0.0000 C   0  0  0  0  0  0  0  0  0  0  0  0
   12.1469   -0.1866    0.0000 C   0  0  0  0  0  0  0  0  0  0  0  0
    7.8633   -1.0282    0.0000 C   0  0  0  0  0  0  0  0  0  0  0  0
    6.4343   -1.0337    0.0000 C   0  0  0  0  0  0  0  0  0  0  0  0
    9.2922   -1.0227    0.0000 C   0  0  0  0  0  0  0  0  0  0  0  0
    8.5730    0.2121    0.0000 C   0  0  0  0  0  0  0  0  0  0  0  0
    8.5793   -1.4379    0.0000 C   0  0  0  0  0  0  0  0  0  0  0  0
    7.8601   -0.2032    0.0000 C   0  0  0  0  0  0  0  0  0  0  0  0
    5.7214   -1.4490    0.0000 C   0  0  0  0  0  0  0  0  0  0  0  0
   12.1374    2.2883    0.0000 C   0  0  0  0  0  0  0  0  0  0  0  0
    4.2364   -1.4661    0.0000 C   0  0  0  0  0  0  0  0  0  0  0  0
    4.2364   -2.2911    0.0000 C   0  0  0  0  0  0  0  0  0  0  0  0
    5.7214   -2.3083    0.0000 C   0  0  0  0  0  0  0  0  0  0  0  0
    3.5220   -1.0536    0.0000 C   0  0  0  0  0  0  0  0  0  0  0  0
    2.8075   -2.2911    0.0000 C   0  0  0  0  0  0  0  0  0  0  0  0
  1 19  1  0  0  0  0
  2 17  2  0  0  0  0
  3 19  2  0  0  0  0
  4 27  1  0  0  0  0
  5 27  2  0  0  0  0
  6 31  2  0  0  0  0
 14  7  1  1  0  0  0
  7 17  1  0  0  0  0
  8 20  1  0  0  0  0
  8 21  1  0  0  0  0
  9 26  1  0  0  0  0
  9 28  2  0  0  0  0
 10 29  1  0  0  0  0
 10 32  1  0  0  0  0
 11 29  2  0  0  0  0
 11 30  1  0  0  0  0
 12 31  1  0  0  0  0
 12 32  2  0  0  0  0
 13 32  1  0  0  0  0
 14 15  1  0  0  0  0
 14 19  1  0  0  0  0
 15 16  1  0  0  0  0
 16 27  1  0  0  0  0
 17 18  1  0  0  0  0
 18 22  2  0  0  0  0
 18 23  1  0  0  0  0
 20 24  2  0  0  0  0
 20 25  1  0  0  0  0
 21 26  1  0  0  0  0
 22 24  1  0  0  0  0
 23 25  2  0  0  0  0
 26 30  2  0  0  0  0
 28 29  1  0  0  0  0
 28 31  1  0  0  0  0
M  END
> <DATABASE_ID>
DB00158

> <DATABASE_NAME>
drugbank

> <SMILES>
NC1=NC(=O)C2=NC(CNC3=CC=C(C=C3)C(=O)N[C@@H](CCC(O)=O)C(O)=O)=CN=C2N1

> <INCHI_IDENTIFIER>
InChI=1S/C19H19N7O6/c20-19-25-15-14(17(30)26-19)23-11(8-22-15)7-21-10-3-1-9(2-4-10)16(29)24-12(18(31)32)5-6-13(27)28/h1-4,8,12,21H,5-7H2,(H,24,29)(H,27,28)(H,31,32)(H3,20,22,25,26,30)/t12-/m0/s1

> <INCHI_KEY>
OVBPIULPVIDEAO-LBPRGKRZSA-N

> <FORMULA>
C19H19N7O6

> <MOLECULAR_WEIGHT>
441.3975

> <EXACT_MASS>
441.139681375

> <JCHEM_ACCEPTOR_COUNT>
12

> <JCHEM_AVERAGE_POLARIZABILITY>
42.05656599350642

> <JCHEM_BIOAVAILABILITY>
0

> <JCHEM_DONOR_COUNT>
6

> <JCHEM_FORMAL_CHARGE>
0

> <JCHEM_GHOSE_FILTER>
0

> <JCHEM_IUPAC>
(2S)-2-[(4-{[(2-amino-4-oxo-1,4-dihydropteridin-6-yl)methyl]amino}phenyl)formamido]pentanedioic acid

> <ALOGPS_LOGP>
-0.04

> <JCHEM_LOGP>
-0.6822492521481692

> <ALOGPS_LOGS>
-3.76

> <JCHEM_MDDR_LIKE_RULE>
1

> <JCHEM_NUMBER_OF_RINGS>
3

> <JCHEM_PHYSIOLOGICAL_CHARGE>
-2

> <JCHEM_PKA>
4.173203635301818

> <JCHEM_PKA_STRONGEST_ACIDIC>
3.3738733533368284

> <JCHEM_PKA_STRONGEST_BASIC>
2.0868651603506487

> <JCHEM_POLAR_SURFACE_AREA>
208.99000000000004

> <JCHEM_REFRACTIVITY>
111.01120000000002

> <JCHEM_ROTATABLE_BOND_COUNT>
9

> <JCHEM_RULE_OF_FIVE>
0

> <ALOGPS_SOLUBILITY>
7.61e-02 g/l

> <JCHEM_TRADITIONAL_IUPAC>
folate

> <JCHEM_VEBER_RULE>
0

> <DRUGBANK_ID>
DB00158

> <SECONDARY_ACCESSION_NUMBERS>
NUTR00025

> <DRUG_GROUPS>
approved; nutraceutical; vet_approved

> <GENERIC_NAME>
Folic acid

> <SYNONYMS>
Acide folique; ácido fólico; Acidum folicum; Folacin; Folate; Folic acid; Folsäure; N-[(4-{[(2-amino-4-oxo-1,4-dihydropteridin-6-yl)methyl]amino}phenyl)carbonyl]-L-glutamic acid; N-pteroyl-L-glutamic acid; PGA; PteGlu; Pteroyl-L-glutamate; Pteroyl-L-glutamic acid; Pteroyl-L-monoglutamic acid; Pteroylglutamic acid; Vitamin B9; Vitamin Bc; Vitamin M

> <PRODUCTS>
24 Multivitamins + Minerals; 50 Plus; 50 Plus Multiple Vitamins & Minerals; A.R.T.H. Away Formula; A/o-26 - Caplet; Acide Folique 5 Tab; Acti-folic + Dibencozide Caplets; Active FE; Active OB; Adult Formula 50+; Adult Infuvite Multiple Vitamins; Advanced AM PM; Advanced B & T Formula; Alkadrenergy Tablets; Am Caps; Amerix Multivitamin; Animal Shapes; Animal Shapes w/Iron Chewtabs; Animi-3; Animi-3 with Vitamin D; Av-VITE FB; Av-VITE FB Forte; Avon Nutrivance Vitamin E Plus; Avon Vitadvance Multi-kids Complete; AxiFol; AzesChew; Azesco; B 50 Capsules; B Complex 25mg Vitamin Supplement; B Complex 50 Vitamin Cap; B Complex 50+ Caplet; B Complex Tablets; B Compound 50mg Tab; B Stress C + Iron & Vite; B-100 Caps; B-100 Complex Tablets; B-100 Hi Potency B Vitamins Tab; B-100 Vitamin Supplement; B-50 Complex; B-50 Complex Tab; B-50 Hi Potency B Vitamins Tab; B-Nexa; B-Serene Rx; B-complex; B-complex 100; B-complex 50; B-complex Tab; B-complex Tablets; B-complex With Vitamin C, Biotin, Folic Acid; B-complex-50 Tab; B-plex; B.E.T. Complex; B50 B Complex Tab; B6, B12 & Folic Acid; B6, B12 & Folic Acid Multi-vitamin Tablets; BP Vit 3; Bacmin; Bal-Care DHA; Bal-Care DHA Essential; Balanced B 125 Srt; Balanced B-100 B-complex Vitamins Tab; Balanced B-100 Timed Release; Balanced B-50 B-complex Vitamins Tab; Balanced B-50 B-complex Vitamins, Timed Rele; Balanced B-50 Complex; Balanced B-complex Vit + Vit C&e Tab; Balanced B100; Balanced B50 Complex; Bear Essentials; Bev 29 Tab; Bev B-150; BiferaRx; Bio-b12; Bio-fen; BioFerr 90; Body Rox; Bseltzer; Bugs Bunny Chew Multi Vit Plus Iron; Bugs Bunny and Friends Multiple Vitamins; C-B Complex; C-Nate DHA; C. Vit-min Formula; C.R.D.-force; Calcium Folic Acid Plus D Chewable; Calcium PNV; Carbassist Tablets; Cardiotek-RX; Cavan Alpha; Cavan Folate DHA; Cavan Folate OB; Cavan Heme OB; Cavan One; Cavan Prenatal; Cavan X; Cavan-EC SOD DHA; Cda-21 Vitamins With Non-medicinal Probiotic Complex; Cedevita Plus Vitamin Supplement; Cedevita Sugar-free Vitamin Supplement; Central-vite 18 Essential; Centratex; Century Complete; Chela Iron Plus C,b Complex; Chela Potassium Plus; Chew.multiple Vits.with Extra C for Children; Chewable Adult Multivitamins With Minerals; Chewable Children's Complete Multivitamins With Essential Minerals; Chewable Multiple Vit Plus Iron for Children; Chewable Multiple Vitamins Plus Extra C; Chewable Multiple Vitamins for Children; Chewable Multivitamins; Chewable Multivitamins Plus Iron; Children's Chewable Multi Vit W Iron; Children's Chewable Multi Vitamins; Children's Chewable Multi Vitamins With Iron Tablets; Children's Chewable Multi-vitamin; Children's Chewable Multi-vitamin Complete With Minerals; Children's Chewable Multiple Vit.plus Iron; Children's Chewable Multiple Vitamins (chewable Tablets); Children's Chewable Multiple Vitamins - Tab; Children's Chewable Multiple Vitamins With Extra Vitamin C (chewable Tablets); Children's Chewable Multiple Vitamins With Iron Tablets (chewable Tablets); Children's Chewable Multivitamin Complete With Minerals; Children's Chewable Multivitamin and Multimineral; Children's Chewable Multivitamins With Minerals; Children's Chewable Multivitamins and Minerals; Children's Chewable Tab; Children's Chewable Vit and Min Tab; Children's Vitamins Chewable; Children's Vitamins W Iron Chewable; Childrens Chew Multi Vitamin Tab; Childrens Chewab Vitamin W Chel Minerals; Childrens Chewable Multiple Vitamins; Childrens Chewable Multiple Vitamins Plus Fe; Childrens Chewable Multiple Vitamins Tab; Childrens Chewable Multiple Vitamins W.iron; Childrens Chewable Tab; Childrens Chewable Vitamins; Choice OB DHA; Cholecal DF; Chromagen; Ciferex; Cifrazol; CitraNatal 90 DHA; CitraNatal Assure; CitraNatal B-Calm; CitraNatal Bloom; CitraNatal Bloom DHA; CitraNatal DHA; CitraNatal Essence; CitraNatal Harmony; CitraNatal Harmony 3.0; CitraNatal Medley; CitraNatal Rx; Citranatal B-calm; Classic Swiss One 10 Multivitamin and Mineral Tab; Co-Balamin; Co-Veratrol; Complete Mega B; Complete Multivitamins and Minerals Tablets Timed Release; Complete Multivitamins and Minerals for Children; Complete Natal DHA; Complete-RF Prenatal; CompleteNate Chewable; Complex-75; Complexe B 75mg; Complexe B Compose 75; Complexe B-75; Concept DHA; Concept OB; Cool B; Corvita; Corvita 150; Corvite; Corvite 150; Corvite FE; Corvite Free; CyFolex; DaVITE; Daily Balance Tab; Daily Energy Brand B-complex; Daily Supplement Packs; Daily-Vite; Dalivit; Derma-force; DermaNIC; DermacinRx FoliPlus D; DermacinRx PureFolix; Dexifol; Dexivite; Dia-vite; Dialyvite; Dialyvite 3000; Dialyvite 5000; Dialyvite Supreme D; Dialyvite with Zinc; Diaplex; Divista; Docosavit; Doctor's Choice Brand for Men; Dothelle DHA; Duet DHA; Duet DHA 400; Duet DHA 400 ec; Duet DHA Balanced; DuetDHA Balanced; DuetDHA Complete; Durachol; E.S.T. Complex; Earthpals Children's Chewables Multi-vitamin & Mineral Tablets; Edge OB; Efferlife Multivitamins and Minerals; Elite OB Prenatal Multivitamin; EnBrace HR; EnLyte; Energy 80 Prolonged Release Tab; Enrich Core Pack - Children Vitamin and Mineral Supplement; Envirocomplex; Escavite; Escavite D; Essential B Tablets; Essential Vitamins and Minerals; Extra Once A Day; Extra P.N. Vitamin-mineral Drink Mix; Extra-Virt Plus DHA; Ez-flex; FE C Tab Plus; FaBB; Falessa; FeRiva; FeRiva 21 7; FeRiva FA; FeRivaFA; Fem - Control; Fem - Protect; Fem Time Tab; Feminex 300 Tab; Feminique W Iron and Calcium Tab; Femitab Tab; Feonyx; Ferotrin; FerraPlus 90; Ferralet 90; Ferrex 150 Forte; Ferrex 150 Forte Plus; Ferrex 28; FerroGels Forte; Fib-C Melts; Fibrik; Fizz Multivitamins for Kids W C Loz; Flinstones Multiple Plus Iron; Flintstones Multiple Vitamins; Flintstones Multiple Vitamins Plus Iron; Flintstones Multiple Vitamins Tab; Flintstones W Extra C Tab; Floradix Formula Liq; Floriva; Focalgin 90 DHA; Focalgin B; Focalgin CA; Focalgin DSS; Folastin; Folbic; Folcal DHA; Folcaps; Folcaps Care One; Folcaps Omega-3; Folet DHA; Folet One; Folgard; Folic Acid; Folic Acid & Vitamin C; Folic Acid (1mg Tablet); Folic Acid 0.4 Mg Tablet; Folic Acid 0.4mg; Folic Acid 0.4mg Dietary Supplement; Folic Acid 0.8mg; Folic Acid 1 Mg - Tablet; Folic Acid 1 mg; Folic Acid 1mg; Folic Acid 1mg With C 20mg; Folic Acid 1mg With Vitamin C; Folic Acid 400mcg Tab; Folic Acid 800mcg Tab; Folic Acid Capsules 1mg; Folic Acid Ctr Srt 800mcg; Folic Acid Inj 5mg/ml USP; Folic Acid Injection USP; Folic Acid Injection, USP; Folic Acid Plus; Folic Acid Tab 0.4mg USP; Folic Acid Tab 1mg; Folic Acid Tab 1mg USP Chewable; Folic Acid Tab 25mg; Folic Acid Tab 5mg; Folic Acid Tablets 0.8mg; Folic Acid Tablets 5mg; Folic Acid With Vitamin B12 and Vitamin C; Folic Acid-b12 Tab; Folic D3; Folic acid; Folic-K; Folica BE; Folica-V; Folika-D; Folika-MG; Folika-NC; Folika-T; Folika-V; Folinex; Folite; Folivane-F; Folivane-OB; Folivane-PRx DHA; Folivane-Plus with Ascorbic Acid Precursors; Folixapure; Folplex; Foltabs 800; Foltabs Prenatal; Foltabs Prenatal Plus DHA; Foltrate; Foltrexyl; Foltx; Folvik-D; Folvite; Folvite Inj 5mg/ml; Folvite Tab 5mg; Folvite-D; Folvite-FE; For Kids Only Chewable Multivit. Plus Iron; For Kids Only Chewable Multivitamins; For Kids Only Chewable Multivitamins - Tab; For Men; For-2; Formula Ch. Les.; Formula Cn; Formula Cp Cap; Formula D.S.; Formula F L W; Formula Gly; Formula Hh; Formula Inf; Formula Int; Formula L.G.I.; Formula O-care Vitamin and Mineral Supplement; Formula O.C.; Formula U - Tab; Fortamines 10 Capsules; Fortamines-10 Comprimes; G.A.S. Complex; Genicin Vita-D; Genicin Vita-Q; Genicin Vita-S; Gestamine Comprimes; Gesticare DHA; Globucel - Methode; Grand Master Formula Tab; Great Day/am Formula Tab; Harvest Of Values All B Complex Tab; Hematogen FA; Hematogen Forte; HemeNatal OB; HemeNatal OB plus DHA; Hemetab; Hemocyte F; Hemocyte Plus; Hi Potency B Complex W Chelated Minerals; Hi Potency B52 B Complex Tab; Hi Potency Balanced B-100 Complex - Tab; Hi Potency Multi Tab; Hi Potency Stress B Tension With C; High Potency Multivitamins & Minerals Caplets; Hill.vite; Homosismin; Homosistrol Capsules; Homosistrox Capsules; Hsn Formula; Hylavite; Hylazinc; Hypnosom; Hypo Vites Tab; INATAL Ultra; Iferex 150 Forte; Inatal Advance; Infuvite Adult Multiple Vitamins; Innersource Tab; Integra F; Integra Plus; Iron; Iron 25mg With Vit B-cmplx, Vit C, Cu & Mo; Iron Aspartate Glycinate and Polysaccharide Complex, Ascorbic Calcium, Vitamin B12, Folic Acid, Calcium Threonate and Succinic Acid; Iron Fumarate and Aspartate, Glycinate, Ascorbic Calcium, Vitamin B12, Folic Acid, Calcium Threonate and Succinic Acid; Iron Plus Manganese, B12, Folic Acid & C; Iron Plus Tab; Iron Polysaccharides Folic Acid DHA; Iron Vitamins B6,b12,c,folic Acid Tab; Iron With Vitamins Tab; Iron, Vit & Min Supp; Irospan 24/6; Isotonix Advanced B-complex Vitamins With Potassium and Magnesium; Isotonix Multitech Vitamin Mineral Supplemen; Isotonix Vitamin B-folic Acid-mineral Supple; Jamp-folic Acid; Jenliva; K.L. Vitamin-mineral; Kanga-V Multivitamins & Minerals; Kanga-kid Multi-vitamin & Mineral; Kid's Choice Children's Chewable Vitamins - Tab; Kids Stuff Tablets; Kids Stuff With Iron Tablets; Kimchi Vitamin chewable multivitamin; Kindervites; L.C. Supplement; L.I.P. Complex; Leritone Antistress; Lexazin; Lipo-B-C Tab; Liqui B Complex; Liqui B Complex Plus; Liqui Vita; Liquid B Complex 50; Lorid; Low Potency B Complex Tab; Luna Vitamin and Mineral Bar for Women; M-Natal Plus; M.V.I. 12; M.V.I. Adult; M.V.I. Paediatric; M.V.I. Pediatric; M.V.I.-12; MVC-Fluoride; MYNEPHROCAPS DIALYSIS/STRESS Vitamin Supplement; Macuvex; Macuzin; Mag-A-folic Tab; MagneBind 400 Rx; Magnum-75 Vitamin and Mineral Supplement; Maintain Multiple Vitamin & Minerals; Marnatal F; Master Key Multi Vitamin Multi Mineral Formula 2; Materna; Materna - Tab; Materna-tab; MaxFe; Maxi 10 Tab; Maximum Once A Day; Maxine Vitamin and Mineral Supplement; Mebolic; Mega 13 Multivitamin Formula; Mega Balance; Mega Capsules; Mega Plex III - Pck; Mega Plex IV - Pck; Mega Vitaminerals; Mega-vim 75 With Beta-carotene - Tablets; Megavite Rx; Men's; Men's 50+; Men's Biomultiple Vitamin and Mineral Supplement; Men's Multi Master Formula; Methaver; Methazel; Mi-Omega NF; Milltrium Senior Vitamin and Mineral Supplement; Mini-B Tab; Mnps Formula Supplement; Moms Choice Rx; Mr. Tumee Multi-vitamin; Multi #2; Multi 12 Injection; Multi B; Multi Enfants Tab; Multi II IV Vi Tab; Multi Plex I - Tab; Multi Plex II - Tab; Multi Pro; Multi Tabs; Multi Vitamin & Minerals; Multi Vitamin - Mineral; Multi Vitamin Plus Iron; Multi Vitamin and Mineral vitamin; Multi Vitamin with Fluoride; Multi Vitamin-mineral Formula; Multi Vitamines - Liq; Multi Vitamins & Minerals; Multi-11; Multi-12 Pediatric; Multi-12/k1 Pediatric; Multi-Nate 30; Multi-Vitamin; Multi-Vitamin With Fluoride; Multi-actin; Multi-force for Women Tab; Multi-kid; Multi-phyto Capsules; Multi-vitamin Dietary Supplement; Multi-vitamins; Multi-vitamins With Minerals; MultiVitamin with Fluoride; MultiVitamin with Fluoride Chewable; Multicaps; Multinate DHA; Multinate DHA Extra; Multipack II; Multiple Vit Plus Iron Tab; Multiple Vitamins; Multiple Vitamins & Minerals Tablets; Multiple Vitamins - Tablet; Multiple Vitamins Plus Iron - Tab; Multiple Vitamins Plus Iron Tab; Multiple Vitamins Plus Iron for Women; Multiple Vitamins Tab; Multiple Vitamins With Iron; Multiple Vitamins With Iron Tablets; Multiple Vitamins and Minerals; Multiple Vitamins and Minerals Capsules; Multitabs; Multivit with Fluoride; Multivitamin; Multivitamin & Minerals (iron Free); Multivitamin & Multimineral; Multivitamin with Fluoride; Multivitamin with fluoride; Multivitamine; Multivitamines Et Mineraux Junior Regulier; Multivitamines Et Mineraux Reguliers / Regular Multivitamins and Minerals; Multivitamines Plus Fer Pour Enfants (chewable Tablets); Multivitamines Pour Enfants (chewable Tablets); Multivitamins and Minerals - Complete; Multivitamins and Minerals Tablets; Multivitamins and Minerals With Betacarotene Tablets; Multivitamins and Minerals for Men; Multivitamins and Minerals for Women; Multivitamins and Minerals for Young Men; Multivitamins and Minerals for Young Women; Multivitamins and Multiminerals Formula Regular Tablet; Multivitamins for Children; Multra Plex; Multra With Iron; Mvc; Mvc 9 Plus 3 Inj; Mvc 9+4 Inj; Myferon 150 Forte; Myhephron Dialysis and Stress Supplement; N.E.U. Complex; N.U.T. Complex; NEONATAL Complete; NESTABS ABC Prenatal Multi-vitamin/Mineral Supplement with DHA/EPA; NESTABS DHA Prenatal Multi-vitamin/Mineral Supplement with DHA/EPA; NESTABS Prenatal Multi-vitamin/Mineral Supplement; Nata Komplete; NataChew; NataFort; Natafolik; Natal-V RX Multi-vitamin/Multi-mineral; Natalvirt 90dha; Natalvirt Ca; Natalvirt FLT; Natavite; Natelle One; Natural Source Spectrum With Beta Carotene; Neomultivite; Neonatal DHA; Neonatal Fe; Neonatal Plus Vitamin; Neonatal Vitamin; Neonatal19; NephPlex Rx; Nephrocaps; Nephrocaps-QT; Nephron FA; Nestabs ONE; Neutral C + Coenzyme Q10 Plus Vitamins & Minerals; New Chapter's D'adamo 4 Your Type Multiple for Type O; Nexa Plus; Nexa Select; Nexa Select Rx Prenatal Vitamin with Plant-Based DHA; Niaacinamide Azelaic AC TURMER FA B6 Zinc Ox Copper; NicAzel; NicAzel Doxy Kit; NicAzelFORTE; Nicadan; Nicadan ZX; Nicaprin; Nicazyme; Nicomide; Nicotinamide Zcf; Niferex; Nioxin Recharging Complex; Niron Komplete; Niva-Fol; Niva-Plus; NovaFerrum; Novo-folacid 5mg; Noxifol-D; Nu-folic; NuFera; Nutra Boost; Nutra-clear; Nutri-Tab OB; Nutri-Tab OB plus DHA; Nutria; Nutrifer Plus Tablets; Nutrilite Double X; Nutrol-B-complex; O-Cal FA multivitamin; O-Cal Prenatal Vitamin; OB Complete 400; OB Complete DHA; OB Complete Gold; OB Complete Petite; OB Complete Prenatal; Ocuvel; Olympian Multi Vit Plus Minerals Tab; Omega-3 Rx Complete; Omniquin; Omnivex; Onccor; Oncovite; One A Day Advance Adults; One A Day Advance Adults 50+; One A Day Advance Fem; One A Day Multiple Vit W Minerals; One A Day Tab; One Daily Vitamin and Mineral Dietary Supplement; One Per Day Vitamin and Mineral Dietary Supplement; One Tablet Daily Mens Formula; One-A-day Advance Fem - Tablets; One-A-day Advance Men's; Only One - Tablet; Orange Flavored Crystal Chews Tab; Orifer F; Ortho D; Ortho DF; Ortho Folic; Orti B; Osteo Formula; Osteo-force; Oveeza; P.N. Vitamin-mineral Drink; P.N.P. Vitamin Drink; P.R.O. Complex; PM Caps; PNV Ferrous Fumarate Docusate Folic Acid; PNV Prenatal Plus Multivitamin; PNV Prenatal Vitamin; PNV Prenatal Vitamin Plus Vitamin A; PNV Tabs 29-1; PNV-First; PNV-Omega; PNV-Select; PR Natal 400; PR Natal 400 ec; PR Natal 430; PR Natal 430 ec; PRENATE Enhance; PRENATE Restore; Paire OB Plus DHA; Palm Springs Multvit and Min Tab; Paramettes Adults; Pediatric Infuvite Multiple Vitamins; Pediatric Infuvite Multiple Vitamins for Infusion; Phytopure; Phytovim Cap; Ply Vi Sol Chewable Tab; Pnv Ob DHA; Pnv-OB-dha; Pnv-VP-U; Pnv-dha; Poly Vi Flor Chewable Tab; Polymine Avec Zinc Et Cuivre; Potassium W Folic Acid Tab; PramLyte; Pre-Tabs DHA Prenatal Multi-vitamin/Mineral Supplement with DHA/EPA; PreFol-DHA; PreGen DHA; PreGenna; PreNatal 19; PreNatal Vitamins Plus; PreNexa; PreNexa premier; PrePLUS; PreQue 10; PreTAB; Prefera OB plus DHA; PreferaOB; PreferaOB ONE; PreferaOB One; PreferaOB plus DHA; Pregvit; Pregvit Folic 4; Pregvit Folic 5; Premium Prenatal; Premium Prenatal - Tablets; Prena1; Prena1 Chew; Prena1 Plus; Prenaissance; Prenaissance Plus; Prenara; Prenatabs FA; Prenatal; Prenatal Formula Tab; Prenatal Mega Antioxidant; Prenatal Plus; Prenatal Plus Iron; Prenatal Plus Multivitamin Plus DHA MiniCaps; Prenatal Supplement - Tab; Prenatal Vi-min; Prenatal Vitamin No 53 Iron Fum Folic Acid Docusate CA DHA; Prenatal Vitamin and Mineral Supplement; Prenatal Vitamin and Mineral Supplement -tab; Prenatal Vitamin and Mineral Supplement Tab; Prenatal Vitamins Plus; Prenatal Vitamins Plus Low Iron; Prenatal Vitamins and Minerals Tablets; Prenatal and Post Partum Supplement; Prenatal, DHA; Prenate AM; Prenate Chewable; Prenate DHA; Prenate Elite; Prenate Essential; Prenate Mini; Prenate Pixie; Prenate Star; Prenatrix; Prenatryl; Prenatvite; Prenatvite Complete; Prenatvite Plus; Prenavite Forte; Prenavite Forte Tablets; Prenavite Tablets; Preplus; Prim - Royal P.M.T.; PrimaCare; Pro Hers Vanilla; Pro His Mint; Pro Pcos Citrus; Puralor; PureFe OB Plus; PureFe Plus; PureVit DualFe Plus; Q.T. #4 Vitamin and Mineral Dietary Supplement; Q.T. Vitamin and Mineral Drink Mix; Quflora Gummies; Quflora Pediatric; RE FAC-x; RE Nata; RE Nata OB; RE Prenatal Multivitamin with Iron; Re Kar C Plus; Re Ob 90 DHA; Reaphirm Plant Source DHA; Recal D; RediChew; Reebok; Reliv So Sense Daily Vitamin Supplement; Relnate DHA; Remedient; Renal Caps Dialysis/Stress Vitamin Supplement; Renate; Renate DHA; Reno Caps; Replavite; Revesta; Revit Multi-vitamins and Minerals; Revit Plus Cap; Revitalize Multi-vitamin and Mineral Complex; Right Choice A.M. Multi Formula - Caplet; Rogenic; Roxifol-D; Rulavite DHA; Sandoz Folic Acid; Se-Care Chewable; Se-Care Conceive; Se-Natal; Se-Natal 19; Se-Natal 19 Chewable; Se-Natal One; Se-Plete DHA; Se-Tan DHA; Se-Tan PLUS; Se-Vate 21/7; Select OB; Select-OB Plus DHA Prenatal Supplement Plus DHA; Senior Multi One; SetonET; SetonET-EC; Shen Min Vitamin and Mineral Supplement; Sodium Polysulthionate and Folic Acid; Sodium polysulthionate and folic acid; Somavit Brand Vitamins and Minerals Complex; Sopalamine 3b Plus; Sopalamine/3b Plus C; Spd Tab; Spectrum 2 Cap; Spectrum Performa Multivitamins and Minerals Tablets; Stress B & C Caplet; Stress B Capsules With Vitamin C; Stress B Complex With C and E Tab; Stress B Complex With C, E & Iron; Stress B Complex With C, E and Iron Tab; Stress B Complex With C,e, Zinc and Copper; Stress B With 1000 Mg Vitamin C; Stress B&c Tab; Stress B-complex Plus Iron With Vitamins C&e; Stress Complex 600 Avec Vit E Cuivre Zinc; Stress Ctr Srt; Stress Formula; Stress Formula + Iron; Stress Formula B-comp + 500mg Vit C Tab; Stress Formula Multi-B Comp + 500mg Vit C Cap; Stress Formula Multivitamin Tablets USP; Stress Formula Tab; Stress Formula Vit B With C Complex; Stress Forte Plus Lipotropic Factors; Stress Tab With Iron and Vitamin E; Stress Tab With Zinc, Copper and Vitamin E; Stress Vitamin B With C Complex Tablets; Stressmates; Stresstabs + Zinc-copper; Strovite Forte Caplet; Strovite One Caplets; Sulfzix; Sun-rype Vitaburst; Super B Compound W 500mg Vit C; Super B12 + Folic Acid; Super Charged Energy; Super Daily No 2; Super Kids Chewable Multivitamin Multimineral (chewable Tablets); Super Multi; Super Pantoplex; Super Stress Capsules; Super Stress Mega B Plus 1000mg Vit C Tab; Super Vita Vim Multivitamins and Minerals; Super Vita-vim With Beta-carotene - Tab; Supplement De Multivitamines Infusion Arome Fruits Rouges; Supplement De Vitamines Et Mineraux; Supravite Stress Avec Vit E; Supravite Stress Avec Vit E Cuivre Et Zinc; Supravite Stress Avec Vit E Et Fer; Surbex-500 With Iron; Sveets; Swical-energy 3e Age; Swiss One; Swiss One Multi Vit & Chel Min Tab; Swiss One Multivitamin and Mineral Caplet; Swiss One Timed Release Tab; Swiss Total One; T.R.I. B-plex Src; TL Gard Rx; TL-Care DHA; TL-Fluorivite; TL-Fol 500; TL-Folate; TL-Icon; TL-Select; TL-Select DHA; TRONVite; Taliment; Taliva; Tandem - F; Tandem DHA; Tandem OB; Tandem Plus; Tar-end; Taron BC; Taron Forte; Taron-C DHA; Taron-prex Prenatal; Thrivite 19; Thrivite Rx; Tianshi Vital Powder I; Tianshi Vital Powder III; Time Release B 100 Compound - Tablet; Timed Release B Complex 100 Srt; Timed Release B-complex 100; Timed Release B-complex 50; Timed Release Vita-vim Srt; Tl-hem 150; Tobakient; Total Living Concepts Formula One - Tab; Totalvit Plus; Tozal; Tri-Zel; TriAdvance; TriStart DHA; TriStart ONE; Tricare Prenatal; Tricare Prenatal Compleat; Tricare Prenatal DHA One; Tricare Prenatal DHA One Rx Multivitamin; Tricon; Trigels-F Forte; Trinatal GT; Trinatal Rx 1; Trinatal Ultra; Trinaz; TriphroCaps; Triveen-Duo DHA; Triveen-PRx RNF; Udamin Sp; Ultimate OB DHA; UltimateCare ONE; UltimateCare ONE NF; Ultra Hr; Usana Megavitamin Tablets - Tab; V & M Vitamin and Mineral Supplement; V-Natal; VIL-Rx; VITAFOL Gummies; VP CH Plus; VP CH Ultra; VP-HEME One; VP-Iron-C Plus; VP-Vite Rx; Vasculine; Vc II; Vege 1 Daily Tab; Vege Swiss One Multivitamin W Chel Mins Tab; VemaVite-PRx 2 with Fish-Based DHA; Vena-Bal DHA; Vigo Multivitamins Drops/lozenge; Vimeral Tab; Vinacal; Vinate AZ; Vinate Care; Virt Nate; Virt Vite GT; Virt-Advance; Virt-Bal DHA Plus; Virt-C DHA; Virt-Caps; Virt-Care One; Virt-Gard; Virt-Nate; Virt-Nate DHA; Virt-PN; Virt-PN DHA; Virt-PN Plus; Virt-Select PRENATAL/POSTNATAL; Virt-Tabs; Virt-Vite; Virt-Vite Forte; Virt-Vite Plus; VirtPrex; Vit B Complex Ctr; Vit-HA Multi Vitamin and Zinc Supplement; Vita B Complex Tab; Vita Balance 2000; Vita Day Tab; Vita Plex Tab; Vita Vim Multivitamins and Minerals Tab; Vita Vim With Beta Carotene-caplet; Vita-B; Vita-B-75 Cap; Vita-Rx Diabetic Vitamin; Vita-folic-B Caps; Vita-vim - Tab; Vita-vim With Beta-carotene - Tab; Vita-worth B-complex Tablets; VitaPhil Aide; VitaXyme; Vitabanks Vitamin Tab; Vitachrom Gc; Vitaflex Dietary Suplement; Vitafol; Vitafol Caplet; Vitafol Fe Plus; Vitafol Nano; Vitafol OB Caplet; Vitafol One; Vitafol Plus; Vitafol Ultra; Vitafol-OB Plus DHA Prenatal Supplement Plus DHA; Vital Be-100; Vital-D Rx; Vitalife - Capsule; Vitamin & Mineral Formula 1 Dietary Supplement; Vitamin B + C Cap; Vitamin B Complex 100 Tab; Vitamin B Complex 50; Vitamin B Complex Suppl; Vitamin B Complex Tab; Vitamin B Complex W C Tab; Vitamin B Compound Tab; Vitamin B Compound W C Tab 500mg; Vitamin B Compound W Vit C 250mg Tab; Vitamin B Tablets; Vitamin B-12 With Folic Acid Tablets; Vitamin B12 Plus Tablets W Folic Acid; Vitamin B12-folic Acid; Vitamin B6 & B12 With Folic Acid; Vitaphil 90 DHA; Vitaphil DHA; Vitaplex; Vitasure; Vitazyme; Vitogen B Stress C Vit E Zinc & Cop; Vitrexate; Vitrexate FE; Vitrexyl; Vitrexyl plus Iron; Viva CT Prenatal; Viva Kids - Tab; Vol-Care Rx; Vol-Nate; Vol-Plus; Vol-Tab Rx; Vp-CH-pnv; Vp-ggr-B6; Vp-heme Ob; Vp-heme Ob DHA; Vp-pnv-dha; Vp-zel; Vtb Vitamin and Mineral Supplement; Vyo Cylate - Pwr; Vyqua; Wellness Formula; WesTab Mini; WesTab Plus; WestGel DHA; Women's Biomultiple Vitamin and Mineral Supplement; Women's Change Formula; Women's Formula; Xvite; Xyzbac; Xyzbac G; Xyzmune; Zalvit; Zatean-CH; Zatean-Pn; Zatean-Pn DHA; Zatean-Pn Plus; Zavara; Zavitrol; Zingiber; Zolate; Zoo Chews; Zoo Chews Plus Iron; Zyvit; ahoSAN; bioJET; healthy mamaBE WELL ROUNDED BE WELL ROUNDED; hormaSAN forte; natelle COMPLETE; tensioSAN; vitaMedMD One Rx; vitaMedMD Rx Plus

> <INTERNATIONAL_BRANDS>
Acfol; Fefol

> <SALTS>
Folate sodium

$$$$

  Mrv1718006221812462D          

 22 21  0  0  0  0            999 V2000
    0.3572    1.6500    0.0000 C   0  0  0  0  0  0  0  0  0  0  0  0
   -0.3572    2.0625    0.0000 C   0  0  0  0  0  0  0  0  0  0  0  0
   -1.0717    1.6500    0.0000 C   0  0  0  0  0  0  0  0  0  0  0  0
   -1.7862    2.0625    0.0000 C   0  0  0  0  0  0  0  0  0  0  0  0
   -2.5006    1.6500    0.0000 C   0  0  0  0  0  0  0  0  0  0  0  0
   -2.5006    0.8250    0.0000 C   0  0  0  0  0  0  0  0  0  0  0  0
   -3.2151    0.4124    0.0000 C   0  0  0  0  0  0  0  0  0  0  0  0
   -3.2151   -0.4125    0.0000 C   0  0  0  0  0  0  0  0  0  0  0  0
   -2.5006   -0.8250    0.0000 C   0  0  0  0  0  0  0  0  0  0  0  0
   -2.5006   -1.6500    0.0000 C   0  0  0  0  0  0  0  0  0  0  0  0
   -1.7862   -2.0625    0.0000 C   0  0  0  0  0  0  0  0  0  0  0  0
   -1.0717   -1.6500    0.0000 C   0  0  0  0  0  0  0  0  0  0  0  0
   -0.3572   -2.0625    0.0000 C   0  0  0  0  0  0  0  0  0  0  0  0
    0.3572   -1.6500    0.0000 C   0  0  0  0  0  0  0  0  0  0  0  0
    0.3572   -0.8250    0.0000 C   0  0  0  0  0  0  0  0  0  0  0  0
    1.0716   -0.4125    0.0000 C   0  0  0  0  0  0  0  0  0  0  0  0
    1.7861   -0.8250    0.0000 C   0  0  0  0  0  0  0  0  0  0  0  0
    0.3572    0.8250    0.0000 C   0  0  0  0  0  0  0  0  0  0  0  0
    1.0716    0.4124    0.0000 C   0  0  0  0  0  0  0  0  0  0  0  0
    2.5006    0.4124    0.0000 O   0  0  0  0  0  0  0  0  0  0  0  0
    3.2151   -0.8250    0.0000 O   0  0  0  0  0  0  0  0  0  0  0  0
    2.5006   -0.4125    0.0000 C   0  0  0  0  0  0  0  0  0  0  0  0
 18  1  1  0  0  0  0
  1  2  2  0  0  0  0
  2  3  1  0  0  0  0
  3  4  1  0  0  0  0
  4  5  2  0  0  0  0
  5  6  1  0  0  0  0
  6  7  1  0  0  0  0
  7  8  2  0  0  0  0
  8  9  1  0  0  0  0
  9 10  1  0  0  0  0
 10 11  2  0  0  0  0
 11 12  1  0  0  0  0
 12 13  1  0  0  0  0
 13 14  2  0  0  0  0
 14 15  1  0  0  0  0
 15 16  1  0  0  0  0
 16 17  1  0  0  0  0
 17 22  1  0  0  0  0
 18 19  1  0  0  0  0
 22 20  2  0  0  0  0
 22 21  1  0  0  0  0
M  END
> <DATABASE_ID>
DB00159

> <DATABASE_NAME>
drugbank

> <SMILES>
CC\C=C/C\C=C/C\C=C/C\C=C/C\C=C/CCCC(O)=O

> <INCHI_IDENTIFIER>
InChI=1S/C20H30O2/c1-2-3-4-5-6-7-8-9-10-11-12-13-14-15-16-17-18-19-20(21)22/h3-4,6-7,9-10,12-13,15-16H,2,5,8,11,14,17-19H2,1H3,(H,21,22)/b4-3-,7-6-,10-9-,13-12-,16-15-

> <INCHI_KEY>
JAZBEHYOTPTENJ-JLNKQSITSA-N

> <FORMULA>
C20H30O2

> <MOLECULAR_WEIGHT>
302.451

> <EXACT_MASS>
302.224580204

> <JCHEM_ACCEPTOR_COUNT>
2

> <JCHEM_ATOM_COUNT>
52

> <JCHEM_AVERAGE_POLARIZABILITY>
35.929318415657974

> <JCHEM_BIOAVAILABILITY>
0

> <JCHEM_DONOR_COUNT>
1

> <JCHEM_FORMAL_CHARGE>
0

> <JCHEM_GHOSE_FILTER>
0

> <JCHEM_IUPAC>
(5Z,8Z,11Z,14Z,17Z)-icosa-5,8,11,14,17-pentaenoic acid

> <ALOGPS_LOGP>
6.53

> <JCHEM_LOGP>
6.225249154333334

> <ALOGPS_LOGS>
-6.02

> <JCHEM_MDDR_LIKE_RULE>
0

> <JCHEM_NUMBER_OF_RINGS>
0

> <JCHEM_PHYSIOLOGICAL_CHARGE>
-1

> <JCHEM_PKA_STRONGEST_ACIDIC>
4.819771840522258

> <JCHEM_POLAR_SURFACE_AREA>
37.3

> <JCHEM_REFRACTIVITY>
101.07059999999998

> <JCHEM_ROTATABLE_BOND_COUNT>
13

> <JCHEM_RULE_OF_FIVE>
0

> <ALOGPS_SOLUBILITY>
2.89e-04 g/l

> <JCHEM_TRADITIONAL_IUPAC>
eicosapentaenoic acid

> <JCHEM_VEBER_RULE>
0

> <DRUGBANK_ID>
DB00159

> <SECONDARY_ACCESSION_NUMBERS>
NUTR00024

> <DRUG_GROUPS>
approved; nutraceutical

> <GENERIC_NAME>
Icosapent

> <SYNONYMS>
(5Z,8Z,11Z,14Z,17Z)-5,8,11,14,17-eicosapentaenoic acid; (5Z,8Z,11Z,14Z,17Z)-Eicosapentaenoate; (5Z,8Z,11Z,14Z,17Z)-Eicosapentaenoic acid; (5Z,8Z,11Z,14Z,17Z)-Icosapentaenoic acid; (all-Z)-5,8,11,14,17-eicosapentaenoic acid; 5,8,11,14,17-eicosapentaenoic acid; 5,8,11,14,17-Icosapentaenoic acid; all-cis-5,8,11,14,17-eicosapentaenoic acid; all-cis-5,8,11,14,17-icosapentaenoic acid; all-cis-icosa-5,8,11,14,17-pentaenoic acid; cis-5,8,11,14,17-eicosapentaenoic acid; cis-5,8,11,14,17-EPA; cis-delta(5,8,11,14,17)-Eicosapentaenoic acid; Eicosapentaenoic acid; EPA; Icosapent; Icosapentaenoic acid; Icosapento; Icosapentum; Timnodonic acid

> <PRODUCTS>
Animi-3; Animi-3 with Vitamin D; BP Vit 3; Cavan One; CitraNatal Assure; CitraNatal DHA; CitraNatal Essence; Docosavit; Dothelle DHA; Folcaps Care One; Folcaps Omega-3; Gesticare DHA; Herbalifeline; NESTABS ABC Prenatal Multi-vitamin/Mineral Supplement with DHA/EPA; NESTABS DHA Prenatal Multi-vitamin/Mineral Supplement with DHA/EPA; Natelle One; Nutri-Tab OB plus DHA; Omega-3 Iq Childrens Chewable; Oveeza; PNV-Omega; Pre-Tabs DHA Prenatal Multi-vitamin/Mineral Supplement with DHA/EPA; Premium Omega 3; Prenate Essential; Se-Plete DHA; Se-Tan DHA; Super Omega 3; TL-Care DHA; Taliment; Taliva; TriStart DHA; Tricare Prenatal 2-part Daily Prenatal Vitamin System; Tricare Prenatal DHA One; Tricare Prenatal DHA One Rx Multivitamin; Tricare Prenatal DHA One With Folate; Tricare Prenatal Twist-off DHA Soft Quick Dissolve; UltimateCare ONE NF; Ultra Omega 3; VITAFOL Gummies; Virt-Bal DHA Plus; Virt-C DHA; Virt-Care One; Virt-PN Plus; Vp-CH-pnv; Vp-pnv-dha; WestGel DHA; Zatean-Pn Plus; natelle COMPLETE

> <SALTS>
Icosapent sodium

$$$$

  Mrv1909 11281920402D          

  6  5  0  0  0  0            999 V2000
    0.3572    0.2062    0.0000 C   0  0  0  0  0  0  0  0  0  0  0  0
   -0.3572   -0.2062    0.0000 C   0  0  1  0  0  0  0  0  0  0  0  0
    1.0716   -0.2062    0.0000 O   0  0  0  0  0  0  0  0  0  0  0  0
    0.3572    1.0312    0.0000 O   0  0  0  0  0  0  0  0  0  0  0  0
   -0.3572   -1.0312    0.0000 N   0  0  0  0  0  0  0  0  0  0  0  0
   -1.0717    0.2062    0.0000 C   0  0  0  0  0  0  0  0  0  0  0  0
  2  1  1  0  0  0  0
  4  1  2  0  0  0  0
  3  1  1  0  0  0  0
  2  6  1  0  0  0  0
  2  5  1  1  0  0  0
M  END
> <DATABASE_ID>
DB00160

> <DATABASE_NAME>
drugbank

> <SMILES>
C[C@H](N)C(O)=O

> <INCHI_IDENTIFIER>
InChI=1S/C3H7NO2/c1-2(4)3(5)6/h2H,4H2,1H3,(H,5,6)/t2-/m0/s1

> <INCHI_KEY>
QNAYBMKLOCPYGJ-REOHCLBHSA-N

> <FORMULA>
C3H7NO2

> <MOLECULAR_WEIGHT>
89.0932

> <EXACT_MASS>
89.047678473

> <JCHEM_ACCEPTOR_COUNT>
3

> <JCHEM_ATOM_COUNT>
13

> <JCHEM_AVERAGE_POLARIZABILITY>
8.487233835110633

> <JCHEM_BIOAVAILABILITY>
1

> <JCHEM_DONOR_COUNT>
2

> <JCHEM_FORMAL_CHARGE>
0

> <JCHEM_GHOSE_FILTER>
0

> <JCHEM_IUPAC>
(2S)-2-aminopropanoic acid

> <ALOGPS_LOGP>
-3.05

> <JCHEM_LOGP>
-2.8407879097329416

> <ALOGPS_LOGS>
0.70

> <JCHEM_MDDR_LIKE_RULE>
0

> <JCHEM_NUMBER_OF_RINGS>
0

> <JCHEM_PHYSIOLOGICAL_CHARGE>
0

> <JCHEM_PKA_STRONGEST_ACIDIC>
2.474897471379417

> <JCHEM_PKA_STRONGEST_BASIC>
9.476905287351833

> <JCHEM_POLAR_SURFACE_AREA>
63.31999999999999

> <JCHEM_REFRACTIVITY>
20.4973

> <JCHEM_ROTATABLE_BOND_COUNT>
1

> <JCHEM_RULE_OF_FIVE>
1

> <ALOGPS_SOLUBILITY>
4.47e+02 g/l

> <JCHEM_TRADITIONAL_IUPAC>
2,4-dichlorobenzyl alcohol

> <JCHEM_VEBER_RULE>
0

> <DRUGBANK_ID>
DB00160

> <SECONDARY_ACCESSION_NUMBERS>
NUTR00013

> <DRUG_GROUPS>
nutraceutical

> <GENERIC_NAME>
Alanine

> <SYNONYMS>
(2S)-2-aminopropanoic acid; (S)-2-aminopropanoic acid; (S)-alanine; Alanina; Alanine; Alaninum; L-2-Aminopropionic acid; L-Alanin; L-alanine; L-alpha-Alanine; L-α-alanine

> <PRODUCTS>
2.5% Travasol Amino Acid Injection With Electrolytes In 10% Dextrose; 2.5% Travasol Amino Acid Injection With Electrolytes In 10% Dextrose Clinimix; 2.5% Travasol Amino Acid Injection Without Electrolytes In 10% Dextrose Quickmix; 2.5%travasol Amino Acid InJ.W.eleC.W.25%dex; 2.75% Travas. Amino Acid InJ.W.elecw.25%dex; 2.75% Travasol Amino Acid Injection With Electrolytes In 25% Dextrose Quickmix; 2.75% Travasol Amino Acid Injection With Electrolytes In 5% Dextrose Quickmix; 2.75%travasol Amino Acid InJ.W.eleC.W.5%dex.; 20% Prosol; 4.25% Amino Acid Injection Without Electrolytes In 20% Dextrose Quickmix; 4.25% Travasol Amino Acid Injection With Electrolytes In 10% Dextrose; 4.25% Travasol Amino Acid Injection With Electrolytes In 20% Dextrose; 4.25% Travasol Amino Acid Injection With Electrolytes In 20% Dextrose Quickmix; 4.25% Travasol Amino Acid Injection With Electrolytes In 25% Dextrose; 4.25% Travasol Amino Acid Injection With Electrolytes In 5% Dextrose Quickmix; 4.25% Travasol Amino Acid Injection Without Electrlytes In 10% Dextrose; 4.25% Travasol Amino Acid Injection Without Electrolytes In 20% Dextrose; 4.25% Travasol Amino Acid Injection Without Electrolytes In 25% Dextrose; 4.25% Travasol Amino Acid Without Electrolytes In 5% Dextrose Quickmix; 4.25%trav. Amino Acid InJ.W.O.elect.5%dext.; 4.25%travasol Amino Acid InJ.W.elecw.5%dex.; 5% Travasol Amino Acid Injection With Electrolytes In 20% Dextrose; 5% Travasol Amino Acid Injection Without Electrolytes In 20% Dextrose; 5% Travasol Amino Acid Injection Without Electrolytes In 25% Dextrose; 8.5% Freamine III; Aminosyn; Aminosyn 10% W Electrolytes; Aminosyn 3.5% M; Aminosyn 5%; Aminosyn 7%; Aminosyn 8.5%; Aminosyn 8.5% Injection With Electrolytes; Aminosyn HF; Aminosyn II; Aminosyn II 10% With Electrolytes; Aminosyn II 5% Inj; Aminosyn II 7% Injection; Aminosyn II 7% M In 10% Dextrose(dual Chamber); Aminosyn II 7% With 10% Dextrose; Aminosyn II 7% With 50% Dextrose; Aminosyn II 8.5% Injection; Aminosyn II 8.5% M In 20% Dextrose (dual Chamber); Aminosyn II 8.5% With 50% Dextrose; Aminosyn II In Dextrose Injection; Aminosyn II and Dextrose; Aminosyn II in Dextrose; Aminosyn II with Electrolytes; Aminosyn II with Electrolytes in Dextrose with Calcium; Aminosyn Sulfite Free; Aminosyn-PF; Aminosyn-PF 10%; Aminosyn-PF 7%; Clinimix; Clinimix 2.5% Travasol Aa Without Electrolytes In 10% Dextrose Injec; Clinimix E; Clinisol; FreAmine HBC; FreAmine III; HepatAmine; Hepatasol; Kabiven; Novamine; Nutrineal Pd4; Olimel 3.3% E; Olimel 4.4%; Olimel 4.4% E; Olimel 5.7%; Olimel 5.7% E; Olimel 7.6%; Olimel 7.6% E; Perikabiven; Periolimel 2.5% E; Plenamine; Premasol - sulfite-free (Amino Acid); Primene; Primene 10%; Primene 10%-liq IV; ProSol; ProcalAmine; Quick Mix 2.5% Travasol Aa With Electrolytes With 25% Dextrose Injec; RenAmin; Renamin (amino Acids) Injection; Smofkabiven; Smofkabiven Electrolyte Free; Smofkabiven Extra Nitrogen; Smofkabiven Extra Nitrogen Electrolyte Free; Smofkabiven Peripheral; Synthamin; Travasol; Travasol Amino Acid Inj 5.5%; Travasol Amino Acid Inj 8.5%; Travasol E; Travasol Inj Without Electrolytes 5.5%; Travasol Inj Without Electrolytes 8.5%; TrophAmine; Vamin 18 Electrolyte-free; Vamin N

$$$$

  Mrv0541 09241312492D          

  8  7  0  0  0  0            999 V2000
    0.7145    0.9281    0.0000 O   0  0  0  0  0  0  0  0  0  0  0  0
    0.7145    0.1031    0.0000 C   0  0  0  0  0  0  0  0  0  0  0  0
    1.4289   -0.3094    0.0000 O   0  0  0  0  0  0  0  0  0  0  0  0
    0.0000   -0.3094    0.0000 C   0  0  1  0  0  0  0  0  0  0  0  0
    0.0000   -1.1344    0.0000 N   0  0  0  0  0  0  0  0  0  0  0  0
   -0.7145    0.1031    0.0000 C   0  0  0  0  0  0  0  0  0  0  0  0
   -0.7145    0.9281    0.0000 C   0  0  0  0  0  0  0  0  0  0  0  0
   -1.4289   -0.3094    0.0000 C   0  0  0  0  0  0  0  0  0  0  0  0
  2  1  2  0  0  0  0
  3  2  1  0  0  0  0
  4  2  1  0  0  0  0
  4  5  1  1  0  0  0
  6  4  1  0  0  0  0
  7  6  1  0  0  0  0
  8  6  1  0  0  0  0
M  END
> <DATABASE_ID>
DB00161

> <DATABASE_NAME>
drugbank

> <SMILES>
CC(C)[C@H](N)C(O)=O

> <INCHI_IDENTIFIER>
InChI=1S/C5H11NO2/c1-3(2)4(6)5(7)8/h3-4H,6H2,1-2H3,(H,7,8)/t4-/m0/s1

> <INCHI_KEY>
KZSNJWFQEVHDMF-BYPYZUCNSA-N

> <FORMULA>
C5H11NO2

> <MOLECULAR_WEIGHT>
117.1463

> <EXACT_MASS>
117.078978601

> <JCHEM_ACCEPTOR_COUNT>
3

> <JCHEM_AVERAGE_POLARIZABILITY>
12.191412403732404

> <JCHEM_BIOAVAILABILITY>
1

> <JCHEM_DONOR_COUNT>
2

> <JCHEM_FORMAL_CHARGE>
0

> <JCHEM_GHOSE_FILTER>
0

> <JCHEM_IUPAC>
(2S)-2-amino-3-methylbutanoic acid

> <ALOGPS_LOGP>
-2.29

> <JCHEM_LOGP>
-1.953136464200883

> <ALOGPS_LOGS>
0.26

> <JCHEM_MDDR_LIKE_RULE>
0

> <JCHEM_NUMBER_OF_RINGS>
0

> <JCHEM_PHYSIOLOGICAL_CHARGE>
0

> <JCHEM_PKA_STRONGEST_ACIDIC>
2.7172733818557755

> <JCHEM_PKA_STRONGEST_BASIC>
9.599176382928611

> <JCHEM_POLAR_SURFACE_AREA>
63.31999999999999

> <JCHEM_REFRACTIVITY>
29.4929

> <JCHEM_ROTATABLE_BOND_COUNT>
2

> <JCHEM_RULE_OF_FIVE>
1

> <ALOGPS_SOLUBILITY>
2.14e+02 g/l

> <JCHEM_TRADITIONAL_IUPAC>
L-valine

> <JCHEM_VEBER_RULE>
0

> <DRUGBANK_ID>
DB00161

> <SECONDARY_ACCESSION_NUMBERS>
NUTR00060

> <DRUG_GROUPS>
approved; nutraceutical

> <GENERIC_NAME>
Valine

> <SYNONYMS>
(2S)-2-Amino-3-methylbutanoic acid; (S)-Valine; 2-Amino-3-methylbutyric acid; L-(+)-alpha-Aminoisovaleric acid; L-alpha-Amino-beta-methylbutyric acid; L-valin; L-valine; Val; Valine

> <PRODUCTS>
2.5% Travasol Amino Acid Injection With Electrolytes In 10% Dextrose; 2.5% Travasol Amino Acid Injection With Electrolytes In 10% Dextrose Clinimix; 2.5% Travasol Amino Acid Injection Without Electrolytes In 10% Dextrose Quickmix; 2.5%travasol Amino Acid InJ.W.eleC.W.25%dex; 2.75% Travas. Amino Acid InJ.W.elecw.25%dex; 2.75% Travasol Amino Acid Injection With Electrolytes In 25% Dextrose Quickmix; 2.75% Travasol Amino Acid Injection With Electrolytes In 5% Dextrose Quickmix; 2.75%travasol Amino Acid InJ.W.eleC.W.5%dex.; 20% Prosol; 4.25% Amino Acid Injection Without Electrolytes In 20% Dextrose Quickmix; 4.25% Travasol Amino Acid Injection With Electrolytes In 10% Dextrose; 4.25% Travasol Amino Acid Injection With Electrolytes In 20% Dextrose; 4.25% Travasol Amino Acid Injection With Electrolytes In 20% Dextrose Quickmix; 4.25% Travasol Amino Acid Injection With Electrolytes In 25% Dextrose; 4.25% Travasol Amino Acid Injection With Electrolytes In 5% Dextrose Quickmix; 4.25% Travasol Amino Acid Injection Without Electrlytes In 10% Dextrose; 4.25% Travasol Amino Acid Injection Without Electrolytes In 20% Dextrose; 4.25% Travasol Amino Acid Injection Without Electrolytes In 25% Dextrose; 4.25% Travasol Amino Acid Without Electrolytes In 5% Dextrose Quickmix; 4.25%trav. Amino Acid InJ.W.O.elect.5%dext.; 4.25%travasol Amino Acid InJ.W.elecw.5%dex.; 5% Travasol Amino Acid Injection With Electrolytes In 20% Dextrose; 5% Travasol Amino Acid Injection Without Electrolytes In 20% Dextrose; 5% Travasol Amino Acid Injection Without Electrolytes In 25% Dextrose; 8.5% Freamine III; Aminosyn; Aminosyn 10% W Electrolytes; Aminosyn 3.5% M; Aminosyn 5%; Aminosyn 7%; Aminosyn 8.5%; Aminosyn 8.5% Injection With Electrolytes; Aminosyn HF; Aminosyn II; Aminosyn II 10% With Electrolytes; Aminosyn II 5% Inj; Aminosyn II 7% Injection; Aminosyn II 7% M In 10% Dextrose(dual Chamber); Aminosyn II 7% With 10% Dextrose; Aminosyn II 7% With 50% Dextrose; Aminosyn II 8.5% Injection; Aminosyn II 8.5% M In 20% Dextrose (dual Chamber); Aminosyn II 8.5% With 50% Dextrose; Aminosyn II In Dextrose Injection; Aminosyn II and Dextrose; Aminosyn II in Dextrose; Aminosyn II with Electrolytes; Aminosyn II with Electrolytes in Dextrose with Calcium; Aminosyn RF; Aminosyn RF Injection; Aminosyn Sulfite Free; Aminosyn-PF; Aminosyn-PF 10%; Aminosyn-PF 7%; Bcaa 4% Inj; BranchAmin; Clinimix; Clinimix 2.5% Travasol Aa Without Electrolytes In 10% Dextrose Injec; Clinimix E; Clinisol; FreAmine HBC; FreAmine III; HepatAmine; Hepatasol; Kabiven; NephrAmine; Nephramine Liq IV; Novamine; Nutrineal Pd4; Olimel 3.3% E; Olimel 4.4%; Olimel 4.4% E; Olimel 5.7%; Olimel 5.7% E; Olimel 7.6%; Olimel 7.6% E; Perikabiven; Periolimel 2.5% E; Plenamine; Premasol - sulfite-free (Amino Acid); Primene; Primene 10%; Primene 10%-liq IV; ProSol; ProcalAmine; Quick Mix 2.5% Travasol Aa With Electrolytes With 25% Dextrose Injec; RenAmin; Renamin (amino Acids) Injection; Smofkabiven; Smofkabiven Electrolyte Free; Smofkabiven Extra Nitrogen; Smofkabiven Extra Nitrogen Electrolyte Free; Smofkabiven Peripheral; Synthamin; Travasol; Travasol Amino Acid Inj 5.5%; Travasol Amino Acid Inj 8.5%; Travasol E; Travasol Inj Without Electrolytes 5.5%; Travasol Inj Without Electrolytes 8.5%; TrophAmine; Vamin 18 Electrolyte-free; Vamin N

$$$$
Carotene-beta
  Mrv1718004101817222D          

 21 21  0  0  0  0            999 V2000
   -6.7893   -0.2309    0.0000 C   0  0  0  0  0  0  0  0  0  0  0  0
   -6.0748    0.1816    0.0000 C   0  0  0  0  0  0  0  0  0  0  0  0
   -7.5038   -1.4684    0.0000 C   0  0  0  0  0  0  0  0  0  0  0  0
   -8.2182   -0.2309    0.0000 C   0  0  0  0  0  0  0  0  0  0  0  0
   -5.3602   -0.2309    0.0000 C   0  0  0  0  0  0  0  0  0  0  0  0
   -8.2182   -1.0559    0.0000 C   0  0  0  0  0  0  0  0  0  0  0  0
   -4.6459    0.1816    0.0000 C   0  0  0  0  0  0  0  0  0  0  0  0
   -3.9314   -0.2309    0.0000 C   0  0  0  0  0  0  0  0  0  0  0  0
   -4.6459    1.0066    0.0000 C   0  0  0  0  0  0  0  0  0  0  0  0
   -3.2169    0.1816    0.0000 C   0  0  0  0  0  0  0  0  0  0  0  0
   -2.5025   -0.2309    0.0000 C   0  0  0  0  0  0  0  0  0  0  0  0
   -1.7880    0.1816    0.0000 C   0  0  0  0  0  0  0  0  0  0  0  0
   -1.0734   -0.2309    0.0000 C   0  0  0  0  0  0  0  0  0  0  0  0
   -1.7880    1.0066    0.0000 C   0  0  0  0  0  0  0  0  0  0  0  0
   -0.3590    0.1816    0.0000 C   0  0  0  0  0  0  0  0  0  0  0  0
   -6.7893   -1.0559    0.0000 C   0  0  0  0  0  0  0  0  0  0  0  0
   -6.0748   -1.4684    0.0000 C   0  0  0  0  0  0  0  0  0  0  0  0
   -7.9163    0.8961    0.0000 C   0  0  0  0  0  0  0  0  0  0  0  0
   -7.5038    0.1816    0.0000 C   0  0  0  0  0  0  0  0  0  0  0  0
   -7.0913    0.8961    0.0000 C   0  0  0  0  0  0  0  0  0  0  0  0
    0.3553   -0.2308    0.0000 O   0  0  0  0  0  0  0  0  0  0  0  0
  1 16  2  0  0  0  0
  1 19  1  0  0  0  0
  1  2  1  0  0  0  0
 16  3  1  0  0  0  0
 19  4  1  0  0  0  0
  2  5  2  0  0  0  0
  3  6  1  0  0  0  0
  5  7  1  0  0  0  0
  7  8  2  0  0  0  0
  7  9  1  0  0  0  0
  8 10  1  0  0  0  0
 10 11  2  0  0  0  0
 11 12  1  0  0  0  0
 12 13  2  0  0  0  0
 12 14  1  0  0  0  0
 13 15  1  0  0  0  0
  4  6  1  0  0  0  0
 16 17  1  0  0  0  0
 19 18  1  0  0  0  0
 19 20  1  0  0  0  0
 15 21  1  0  0  0  0
M  END
> <DATABASE_ID>
DB00162

> <DATABASE_NAME>
drugbank

> <SMILES>
C\C(=C/CO)\C=C\C=C(/C)\C=C\C1=C(C)CCCC1(C)C

> <INCHI_IDENTIFIER>
InChI=1S/C20H30O/c1-16(8-6-9-17(2)13-15-21)11-12-19-18(3)10-7-14-20(19,4)5/h6,8-9,11-13,21H,7,10,14-15H2,1-5H3/b9-6+,12-11+,16-8+,17-13+

> <INCHI_KEY>
FPIPGXGPPPQFEQ-OVSJKPMPSA-N

> <FORMULA>
C20H30O

> <MOLECULAR_WEIGHT>
286.4516

> <EXACT_MASS>
286.229665582

> <JCHEM_ACCEPTOR_COUNT>
1

> <JCHEM_ATOM_COUNT>
51

> <JCHEM_AVERAGE_POLARIZABILITY>
36.5403584594368

> <JCHEM_BIOAVAILABILITY>
1

> <JCHEM_DONOR_COUNT>
1

> <JCHEM_FORMAL_CHARGE>
0

> <JCHEM_GHOSE_FILTER>
1

> <JCHEM_IUPAC>
(2E,4E,6E,8E)-3,7-dimethyl-9-(2,6,6-trimethylcyclohex-1-en-1-yl)nona-2,4,6,8-tetraen-1-ol

> <ALOGPS_LOGP>
6.38

> <JCHEM_LOGP>
4.694093173000001

> <ALOGPS_LOGS>
-4.58

> <JCHEM_MDDR_LIKE_RULE>
0

> <JCHEM_NUMBER_OF_RINGS>
1

> <JCHEM_PHYSIOLOGICAL_CHARGE>
0

> <JCHEM_PKA_STRONGEST_ACIDIC>
16.435769749539965

> <JCHEM_PKA_STRONGEST_BASIC>
-2.1707943115512176

> <JCHEM_POLAR_SURFACE_AREA>
20.23

> <JCHEM_REFRACTIVITY>
97.92339999999999

> <JCHEM_ROTATABLE_BOND_COUNT>
5

> <JCHEM_RULE_OF_FIVE>
1

> <ALOGPS_SOLUBILITY>
7.58e-03 g/l

> <JCHEM_TRADITIONAL_IUPAC>
vitamin A

> <JCHEM_VEBER_RULE>
1

> <DRUGBANK_ID>
DB00162

> <SECONDARY_ACCESSION_NUMBERS>
NUTR00007; APRD00486

> <DRUG_GROUPS>
approved; nutraceutical; vet_approved

> <GENERIC_NAME>
Vitamin A

> <SYNONYMS>
(2E,4E,6E,8E)-3,7-dimethyl-9-(2,6,6-trimethylcyclohex-1-en-1-yl)nona-2,4,6,8-tetraen-1-ol; all-trans-retinol; all-trans-retinyl alcohol; all-trans-vitamin A alcohol; Retinol; Retinolum; Vitamin A1

> <PRODUCTS>
24 Multivitamins + Minerals; 400 Vitamin A 10000iu; 50 Plus; 50 Plus Multiple Vitamins & Minerals; A & C Powder; A + D Ointment; A + Zinc; A Caps 10000 I.U.; A D Calcium Tab; A Mulsion 10; A and D Ointment; A-D Calcium Cap; Aces Tab; Acti-retinol & Zn Caplet; Ad & Calcium Cap; Ad Calcium Cap; Adc Comprimes; Adult Formula 50+; Adult Infuvite Multiple Vitamins; Alsimine W Vitamins A D; Amerix Multivitamin; Anaplex Tab; Animal Shapes; Animal Shapes w/Iron Chewtabs; Antiseptic Skin Cream; Appedrine; Aquasol A; Aquasol A & D Drops; Aquasol A Cap 25000unit; Aquasol A Cap 50000unit; Aquasol A Cream; Arovit Vitamine A Tab 10000unit; Avon Vitadvance Multi-kids Complete; B.E.T. Complex; Bacmin; Bear Essentials; Beta Green Enriching Formula; Beta-retinol + Zinc Caplet; Biovim Tab; Budpak Vitamin A and D; Bugs Bunny Chew Multi Vit Plus Iron; Bugs Bunny and Friends Multiple Vitamins; C 106 Tab; C-Mask Pack; C. Vit-min Formula; Calci A and D Tab; Calcitol; Calcium A D; Cataplex A Tab 1500unit; Cataplex A-C Tab; Central-vite 18 Essential; Century Complete; Ch-P Cap; Chew.multiple Vits.with Extra C for Children; Chewable Adult Multivitamins With Minerals; Chewable Children's Complete Multivitamins With Essential Minerals; Chewable Multiple Vit Plus Iron for Children; Chewable Multiple Vitamins Plus Extra C; Chewable Multiple Vitamins Plus Iron Tab; Chewable Multiple Vitamins Tab; Chewable Multiple Vitamins for Children; Chewable Multivitamins; Chewable Multivitamins Plus Iron; Children Choice Multivit Chewable Tab; Children Choice Multivitamin W Iron Chew Tab; Children Pediatric Vitamins Drops; Children Vitamin Drops; Children's Chew Multi & Min Tab; Children's Chewable Multi Vit W Iron; Children's Chewable Multi Vitamins; Children's Chewable Multi Vitamins With Iron Tablets; Children's Chewable Multi-vitamin; Children's Chewable Multi-vitamin Complete With Minerals; Children's Chewable Multiple Vit.plus Iron; Children's Chewable Multiple Vitamins (chewable Tablets); Children's Chewable Multiple Vitamins - Tab; Children's Chewable Multiple Vitamins With Extra Vitamin C (chewable Tablets); Children's Chewable Multiple Vitamins With Iron Tablets (chewable Tablets); Children's Chewable Multivitamin Complete With Minerals; Children's Chewable Multivitamin and Multimineral; Children's Chewable Multivitamins With Minerals; Children's Chewable Multivitamins and Minerals; Children's Chewable Tab; Children's Chewable With Iron; Children's Multivitamins; Children's Multivitamins With Iron; Children's Vitamins Chewable; Children's Vitamins W Iron Chewable; Childrens Chew Multi Vitamin Tab; Childrens Chewab Vitamin W Chel Minerals; Childrens Chewable Multiple Vitamins; Childrens Chewable Multiple Vitamins Plus Fe; Childrens Chewable Multiple Vitamins Tab; Childrens Chewable Multiple Vitamins W.iron; Childrens Chewable Multivitamins; Childrens Chewable Multivitamins W Iron; Childrens Chewable Tab; Childrens Chewable Vitamin Tab; Childrens Chewable Vitamins; Childrens Chewable Vitamins W Iron; Childrens Multiple Vit and Min Chew Tab; Cilobana Cpa Tab; Classic Swiss One 10 Multivitamin and Mineral Tab; Cod Liver Oil; Cod Liver Oil Cap; Cod Liver Oil Capsule; Cod Liver Oil Capsules; Cod Liver Oil Capsules 10 Min; Cod Liver Oil Cherry; Cod Liver Oil Mint Flavoured; Cod Liver Oil Oleovitamin A & D Caps 20min; Cod Liver Oil USP; Cod Liver Oil W Added Vit A&d; Complete Multivitamins and Minerals Tablets Timed Release; Complete Multivitamins and Minerals for Children; Croq-vit Pour Enfants; Cyroplex; Daily Balance Tab; Daily Energy Brand Vitamin & Mineral Drink Mix; Daily-Vite; Deriton; Dermamed Nutrition for troubled skin; Dexatrim Tablets; Doctor's Choice Brand for Men; Dry Super Vitamin A Plus D - Cap; Dynam Ampoule Et Tablet; E & I Formulae; E.S.T. Complex; E.V.C. Vitamins Tab; EC + Complex; Earthpals Children's Chewables Multi-vitamin & Mineral Tablets; Elite OB Prenatal Multivitamin; Emulsified Norwegian Cod Liver Oil Caps; Enrich Core Pack - Children Vitamin and Mineral Supplement; Escavite; Escavite Lq; Essential Vitamins and Minerals; Evc - Liq; Evc Liquid Vitamins A,c,b6 With Beta Caro&zn; Everyday Multiple Vitamins; Everyday Multiple Vitamins With Iron; Extra Once A Day; Extra P.N. Vitamin-mineral Drink Mix; Fem - Control; Fem - Protect; Feminex 300 Tab; Femitab Tab; Fizz Multivitamins for Kids W C Loz; Fletanol Capsules; Flexadyn Tab; Flinstones Multiple Plus Iron; Flintstones Multiple Vitamins; Flintstones Multiple Vitamins Plus Iron; Flintstones Multiple Vitamins Tab; Flintstones W Extra C Tab; Floriva; Floriva Plus; Food Nutrition Inc. Men's Vitamin and Mineral Supplement; For Kids Only Chewable Multivit. Plus Iron; For Kids Only Chewable Multivitamins; For Kids Only Chewable Multivitamins - Tab; For-2; Formula 7115 Tab 700unit; Formula Csp With Vitamins A C and Zinc Loz; Formula Fe-vitamin and Mineral Tab; Formula Gly; Formula Hh; Formula Im-vitamins and Minerals Tab; Formula L.G.I.; Formula O; Formula Osg; Formula R Tab; Formula U - Tab; Formule 7561 Caps; Fortamines 10 Capsules; Fortamines-10 Comprimes; Forty Plus Vitamin Supplement; G.A.S. Complex; Garfield Chewable Multivitamins Tab; Garfield Chewable Multivits Plus Iron Tab; Gemvites Jr Tab Chewable; Gestamine Comprimes; Globucel - Methode; Grand Master Formula Tab; Great Day/am Formula Tab; Guardyn Tab; Halibut Liver Oil Cap; Halibut Oil; Hemarexin Tab; High Potency Multivitamins & Minerals Caplets; Huile De Foie De Fletan Capsules; Huile De Foie De Morue Cap 10min; Huile De Foie De Morue Cap 20 Min; Huile De Foie De Morue Capsules; Huile Foie Morue Cap; Hypo Vites Tab; INATAL Ultra; Imm Formula Cap; Inatal Advance; Infa Drops Multivitamins; Infant Multivitamin Drops; Infant's Multiple Vitamin Drops; Infantol Drops; Infants' Multiple Vitamin Drops; Infants' Vitamin Drops; Infuvite Adult Multiple Vitamins; Innersource Tab; Insur-all Vitamin Supplement; Isotonix Multitech Vitamin Mineral Supplemen; Junior Multi Vitamins - Regular; K.L. Vitamin-mineral; Kenwood Liquid Supplement; Kid's Choice Children's Chewable Vitamins - Tab; Kidmag Vitamins W Magnesium Tab; Kids Stuff Tablets; Kids Stuff With Iron Tablets; Kimchi Vitamin chewable multivitamin; Kindervites; L.C. Supplement; L.I.P. Complex; Le Stick A Levres Onybel; Liqui Infant Vitamins; Liqui Vita; Lustime Angel; Lustime Unicorn; Lutime; M-Natal Plus; M.V.I. 12; M.V.I. Adult; M.V.I. Paediatric; M.V.I. Pediatric; M.V.I.-12; MVC-Fluoride; Mag-A-folic Tab; Magnum-75 Vitamin and Mineral Supplement; Maltlevol 12 Liq; Maltlevol Liq; Master Key Multi Vitamin Multi Mineral Formula 2; Materna; Materna - Tab; Materna-tab; Maxi 10 Tab; Maxi 6 Liq; Maximum Once A Day; Maxine Vitamin and Mineral Supplement; Mega Balance; Mega Capsules; Mega Vitaminerals; Mega-vim 75 With Beta-carotene - Tablets; Megavite Rx; Men's; Men's 50+; Men's Multi Master Formula; Milltrium Senior Vitamin and Mineral Supplement; Mor-vites Tab; Mr. Tumee Multi-vitamin; Multi #2; Multi - N.T.O.x Formula - Tab; Multi 1000; Multi 12 Injection; Multi Enfants Tab; Multi II IV Vi Tab; Multi Rol; Multi Tabs; Multi Vitamin & Minerals; Multi Vitamin Drops with Fluoride; Multi Vitamin Drops with Fluoride and Iron; Multi Vitamin Drops with Fluoride with Iron; Multi Vitamin Plus Iron; Multi Vitamin and Fluoride; Multi Vitamin and Mineral vitamin; Multi Vitamin with Fluoride; Multi Vitamin, Iron and Fluoride; Multi Vitamin-mineral Formula; Multi Vitamines - Liq; Multi Vitamins & Minerals; Multi Vite Liq Adult; Multi Vite Liq Junior; Multi-11; Multi-12 Pediatric; Multi-12/k1 Pediatric; Multi-Vit with Fluoride; Multi-Vit with Fluoride and Iron; Multi-Vitamin; Multi-Vitamin Drops with Fluoride and Iron; Multi-Vitamin Fluoride; Multi-Vitamin Fluoride Drops; Multi-Vitamin Fluoride and Iron Drops; Multi-Vitamin With Fluoride; Multi-Vitamin with Fluoride; Multi-actin; Multi-force for Women Tab; Multi-kid; Multi-phyto Capsules; Multi-vitamin Dietary Supplement; Multi-vitamines Enfants Comprime; Multi-vitamins; Multi-vitamins With Minerals; MultiVitamin Drops with Fluoride and Iron; MultiVitamin with Fluoride; MultiVitamin with Fluoride Chewable; MultiVitamin with Fluoride Drops; MultiVitamin, Iron and Fluoride Drops; Multicaps; Multiple Vit Plus Iron Tab; Multiple Vitamin Plus Minerals Tab; Multiple Vitamin Tab; Multiple Vitamins; Multiple Vitamins & Minerals Tablets; Multiple Vitamins - Tablet; Multiple Vitamins Childrens Chewable; Multiple Vitamins Plus Iron - Tab; Multiple Vitamins Plus Iron Tab; Multiple Vitamins Plus Iron for Women; Multiple Vitamins Tab; Multiple Vitamins W Iron Tab; Multiple Vitamins W Minerals Tab; Multiple Vitamins With Iron; Multiple Vitamins With Iron Tablets; Multiple Vitamins With Minerals Tablets; Multiple Vitamins and Minerals; Multiple Vitamins and Minerals Capsules; Multiple Vitamins and Minerals Tab; Multitabs; Multivit Et Fer Ampoules Et Comprimes; Multivit with Fluoride; Multivitamin; Multivitamin & Multimineral; Multivitamin Drops with Fluoride; Multivitamin with Fluoride; Multivitamin with fluoride; Multivitamines; Multivitamines Et Mineraux; Multivitamines Et Mineraux Junior Regulier; Multivitamines Et Mineraux Reguliers / Regular Multivitamins and Minerals; Multivitamines Plus Fer Pour Enfants (chewable Tablets); Multivitamines Pour Enfants (chewable Tablets); Multivitamins; Multivitamins W Iron; Multivitamins W Minerals Extra Strength; Multivitamins and Minerals - Complete; Multivitamins and Minerals Tablets; Multivitamins and Minerals With Betacarotene Tablets; Multivitamins and Multiminerals Formula Regular Tablet; Multivitamins for Children; Multra With Iron; Munit-E Tablet; Mvc; Mvc 9 Plus 3 Inj; Mvc 9+4 Inj; Nata Komplete; Natavite; Natural Source Spectrum With Beta Carotene; Neo Vites Tab; Neo-vites & Minerals Tab; Neomultivite; Neonatal Plus Vitamin; Neonatal Vitamin; Niva-Plus; No440 Cap; NovaFerrum Multivitamin with Iron Pediatric Drops; NovaMV Multivitamin; Nrg Plus Liq; Numark Multivitamins; Nutra-clear; Nutria; Nutrifer Plus Tablets; Nutrol Ad; Nutrol Ad Cap; O-Cal FA multivitamin; O-Cal Prenatal Vitamin; Olympian Multi Vit Plus Minerals Tab; Omega-3 Rx Complete; Onccor; Oncovite; One A Day Advance Adults; One A Day Advance Adults 50+; One A Day Advance Fem; One A Day Multiple Vit W Minerals; One A Day Tab; One Daily Vitamin and Mineral Dietary Supplement; One Per Day Vitamin and Mineral Dietary Supplement; One Tablet Daily Mens Formula; One-A-day Advance Fem - Tablets; One-A-day Advance Men's; Only One - Tablet; Orifer F; P.N. Vitamin-mineral Drink; P.R.O. Complex; PNV Prenatal Plus Multivitamin; PNV Prenatal Vitamin Plus Vitamin A; PNV-Select; Palm Springs Multvit and Min Tab; Paramettes Adults; Paramettes Chewable Multivitamins Plus Iron; Paramettes Chewable Multivits With Iron Tab; Paramettes Multivits Plus Iron Tab (teens); Paramettes Syrup; Pediatric Infuvite Multiple Vitamins; Pediatric Infuvite Multiple Vitamins for Infusion; Perfect Harvest; Permathene-12 - Caplet; Phaze 18 Clearskin; Phytofortis + Calcium A-D; Phytopure; Phytovim Cap; Ply Vi Sol Chewable Tab; Poly Vi Flor Chewable Tab; Poly-VI-sol Drops; Poly-Vi-Flor; Poly-Vi-Sol; Poly-Vitamin with Fluoride; PreGen DHA; PreNatal Vitamins Plus; PreQue 10; Premium Prenatal; Premium Prenatal - Tablets; Prenara; Prenatal; Prenatal Formula Tab; Prenatal Mega Antioxidant; Prenatal Plus; Prenatal Plus Iron; Prenatal Plus Multivitamin Plus DHA MiniCaps; Prenatal Supplement - Tab; Prenatal Vi-min; Prenatal Vitamin and Mineral Supplement; Prenatal Vitamin and Mineral Supplement -tab; Prenatal Vitamin and Mineral Supplement Tab; Prenatal Vitamins Plus; Prenatal Vitamins Plus Low Iron; Prenatal Vitamins and Minerals Tablets; Prenatal and Post Partum Supplement; Prenate Elite; Prenatrix; Prenatryl; Prenatvite; Prenatvite Complete; Prenatvite Plus; Prenavite Forte; Prenavite Forte Tablets; Prenavite Tablets; Preplus; Prevital Tab; Pro His Mint; Pro-sol A Liq 5000unit/min; Q.T. Vitamin and Mineral Drink Mix; Quflora FE; Quflora FE Pediatric Drops; Quflora Gummies; Quflora Pediatric; Quflora Pediatric Drops; RE FAC-x; RE Prenatal Multivitamin with Iron; Real Vitamin Supplement Cap; Reaphirm Plant Source DHA; Renadyn Tab; Revit Plus Cap; Revit Tab; Revitex Ampoules Et Comprimes; Revival 1 Tab; Right Choice A.M. Multi Formula - Caplet; Se-Natal; Se-Natal One; Select OB; Select-OB Plus DHA Prenatal Supplement Plus DHA; Shen Min Vitamin Supplement; Sincera - Tablets; Skineez; Sopalamine 3b Plus; Sopalamine/3b Plus C; Spectrum 2 Cap; Spectrum Performa Multivitamins and Minerals Tablets; Strovite Forte Caplet; Strovite One Caplets; Sun-rype Vitaburst; Super A 40; Super Charged Energy; Super Daily No 2; Super Kids Chewable Multivitamin Multimineral (chewable Tablets); Super Vita Vim Multivitamins and Minerals; Super Vita-vim With Beta-carotene - Tab; Super-A Vitamins With Selenium Dietary Supplement; Super-pote Vitamin Supplement; Supravite Pour Enfants; Sveets; Sweet Sixteen - Tab; Swical-energy 3e Age; Swiss One; Swiss One Multi Vit & Chel Min Tab; Swiss One Timed Release Tab; Swiss Total One; T.A. Vit A & D Ointment; TL-Fluorivite; Tender Age Multi Vitamins; Tender Age Vit Adc Drops; Theraplex Acp; Thymunase Tab; Timed Release Vita-vim Srt; Tonicol Et A-D-C Ampoules/comprimes; Tonimol Cap Liq; Total Living Concepts Formula One - Tab; Totalvit Plus; Tozal; Tri Vi Flor Tab; Tri-VI-sol Drops; Tri-Vi-Flor; Tri-Vit With Fluoride And Iron Drops; Tri-Vit with Fluoride Drops; Tri-Vitamin with Fluoride; Tri-Vitamin with iron and fluoride; Tri-Vite Drops with Fluoride; Trinatal Ultra; Triple Vitamin Drops with Fluoride; Triple-Vitamin Drops with Fluoride; V & M Vitamin and Mineral Supplement; VIL-Rx; VITAFOL Gummies; VITAMINS A, C, D and FLUORIDE; Vasculine; Vege 1 Daily Tab; Vi-daylin Adc Vitamins Drops for Infants; Vimeral Tab; Vit-HA Multi Vitamin and Zinc Supplement; Vita A + D Capsules; Vita Balance 2000; Vita Day Tab; Vita Plex Tab; Vita Vim Multivitamins and Minerals Tab; Vita Vim With Beta Carotene-caplet; Vita-vim - Tab; Vita-vim With Beta-carotene - Tab; Vitaday Junior Tab; Vitaday Tab; Vitafant; Vitafol Caplet; Vitafol Fe Plus; Vitafol OB Caplet; Vitafol One; Vitafol Plus; Vitafol-OB Plus DHA Prenatal Supplement Plus DHA; Vitalife - Capsule; Vitamin & Mineral Formula 1 Dietary Supplement; Vitamin A; Vitamin A (100,000 Iu) and Vitamin E (20 Iu) Oral Liquid Preparation; Vitamin A (200,000 Iu) and Vitamin E (40 Iu) Oral Liquid Preparation; Vitamin A 10000I.U. Cap; Vitamin A 5000 I.U. Dietary Supplement; Vitamin A C E W.niacinam.beta Car.and Min.; Vitamin A Cap 10000iu; Vitamin A Cap 10000iu Natural Source; Vitamin A Cap 10000unit; Vitamin A Cap 10000unit Naturelle; Vitamin A Cap 10000unit USP; Vitamin A Cap 25000iu; Vitamin A Cap 50000iu; Vitamin A Tab 10000unit; Vitamin A Tab 2000unit Chewable; Vitamin A and D; Vitamin A and D Cap; Vitamin A&d Tab; Vitamin Ad Cap; Vitamin E Cream W Vitamins A and D; Vitamine A Cap 10000unit; Vitamines A - D Calcium; Vitamines Et Mineraux; Vitamines Et Mineraux Comprimes; Vitamines Et Mineraux Enfants 970; Vitamines Pour Bebes Et Enfants; Vitamins A and D Capsules; Vitamins A, C, D and Fluoride Drops; Vitaplex; Vitogen Multiple Vitamins Tab; Vitrexate; Vitrexate FE; Vitrexyl; Vitrexyl plus Iron; Viva Kids - Tab; Vol-Plus; Vp-pnv-dha; Vtb Vitamin and Mineral Supplement; Wellness Formula; WesTab Plus; Women's Change Formula; Women's Formula; Zinc Amino Acid Chelate Tab; Zoo Chews; Zoo Chews Plus Iron

> <INTERNATIONAL_BRANDS>
Alphalin; Chocola A

> <SALTS>
Vitamin A acetate; Vitamin A palmitate

$$$$
163
  Mrv1718011201813212D          

 31 32  0  0  1  0            999 V2000
    4.9740   -2.3009    0.0000 O   0  0  0  0  0  0  0  0  0  0  0  0
    2.0930   -0.6223    0.0000 O   0  0  0  0  0  0  0  0  0  0  0  0
    5.7215   -1.8770    0.0000 C   0  0  2  0  0  0  0  0  0  0  0  0
    6.5465   -1.8801    0.0000 C   0  0  0  0  0  0  0  0  0  0  0  0
    5.7215   -1.0177    0.0000 C   0  0  0  0  0  0  0  0  0  0  0  0
    6.9617   -1.1673    0.0000 C   0  0  0  0  0  0  0  0  0  0  0  0
    8.2021   -0.4576    0.0000 C   0  0  1  0  0  0  0  0  0  0  0  0
    7.7867   -1.1705    0.0000 C   0  0  0  0  0  0  0  0  0  0  0  0
    4.9740   -0.5937    0.0000 C   0  0  0  0  0  0  0  0  0  0  0  0
    9.0271   -0.4608    0.0000 C   0  0  0  0  0  0  0  0  0  0  0  0
    6.1313   -2.5930    0.0000 C   0  0  0  0  0  0  0  0  0  0  0  0
    4.2365   -1.0348    0.0000 C   0  0  0  0  0  0  0  0  0  0  0  0
    9.4423    0.2521    0.0000 C   0  0  0  0  0  0  0  0  0  0  0  0
    4.2365   -1.8598    0.0000 C   0  0  0  0  0  0  0  0  0  0  0  0
   10.2673    0.2490    0.0000 C   0  0  0  0  0  0  0  0  0  0  0  0
   10.6826    0.9619    0.0000 C   0  0  1  0  0  0  0  0  0  0  0  0
    7.7923    0.2585    0.0000 C   0  0  0  0  0  0  0  0  0  0  0  0
   11.5076    0.9587    0.0000 C   0  0  0  0  0  0  0  0  0  0  0  0
    3.5220   -0.6223    0.0000 C   0  0  0  0  0  0  0  0  0  0  0  0
    3.5220   -2.2723    0.0000 C   0  0  0  0  0  0  0  0  0  0  0  0
   11.9229    1.6716    0.0000 C   0  0  0  0  0  0  0  0  0  0  0  0
    2.8075   -1.8598    0.0000 C   0  0  0  0  0  0  0  0  0  0  0  0
   10.2729    1.6779    0.0000 C   0  0  0  0  0  0  0  0  0  0  0  0
    2.8075   -1.0348    0.0000 C   0  0  0  0  0  0  0  0  0  0  0  0
   12.7478    1.6683    0.0000 C   0  0  0  0  0  0  0  0  0  0  0  0
   13.1631    2.3812    0.0000 C   0  0  0  0  0  0  0  0  0  0  0  0
    3.5220    0.2027    0.0000 C   0  0  0  0  0  0  0  0  0  0  0  0
    3.5220   -3.0974    0.0000 C   0  0  0  0  0  0  0  0  0  0  0  0
    2.0930   -2.2723    0.0000 C   0  0  0  0  0  0  0  0  0  0  0  0
   12.7533    3.0974    0.0000 C   0  0  0  0  0  0  0  0  0  0  0  0
   13.9881    2.3781    0.0000 C   0  0  0  0  0  0  0  0  0  0  0  0
  1  3  1  0  0  0  0
  1 14  1  0  0  0  0
  2 24  1  0  0  0  0
  3  4  1  0  0  0  0
  3  5  1  0  0  0  0
  3 11  1  6  0  0  0
  4  6  1  0  0  0  0
  5  9  1  0  0  0  0
  6  8  1  0  0  0  0
  7  8  1  0  0  0  0
  7 10  1  0  0  0  0
  7 17  1  6  0  0  0
  9 12  1  0  0  0  0
 10 13  1  0  0  0  0
 12 14  2  0  0  0  0
 12 19  1  0  0  0  0
 13 15  1  0  0  0  0
 14 20  1  0  0  0  0
 15 16  1  0  0  0  0
 16 18  1  0  0  0  0
 16 23  1  6  0  0  0
 18 21  1  0  0  0  0
 19 24  2  0  0  0  0
 19 27  1  0  0  0  0
 20 22  2  0  0  0  0
 20 28  1  0  0  0  0
 21 25  1  0  0  0  0
 22 24  1  0  0  0  0
 22 29  1  0  0  0  0
 25 26  1  0  0  0  0
 26 30  1  0  0  0  0
 26 31  1  0  0  0  0
M  END
> <DATABASE_ID>
DB00163

> <DATABASE_NAME>
drugbank

> <SMILES>
CC(C)CCC[C@@H](C)CCC[C@@H](C)CCC[C@]1(C)CCC2=C(O1)C(C)=C(C)C(O)=C2C

> <INCHI_IDENTIFIER>
InChI=1S/C29H50O2/c1-20(2)12-9-13-21(3)14-10-15-22(4)16-11-18-29(8)19-17-26-25(7)27(30)23(5)24(6)28(26)31-29/h20-22,30H,9-19H2,1-8H3/t21-,22-,29-/m1/s1

> <INCHI_KEY>
GVJHHUAWPYXKBD-IEOSBIPESA-N

> <FORMULA>
C29H50O2

> <MOLECULAR_WEIGHT>
430.7061

> <EXACT_MASS>
430.381080844

> <JCHEM_ACCEPTOR_COUNT>
2

> <JCHEM_ATOM_COUNT>
81

> <JCHEM_AVERAGE_POLARIZABILITY>
55.28889055670551

> <JCHEM_BIOAVAILABILITY>
0

> <JCHEM_DONOR_COUNT>
1

> <JCHEM_FORMAL_CHARGE>
0

> <JCHEM_GHOSE_FILTER>
0

> <JCHEM_IUPAC>
(2R)-2,5,7,8-tetramethyl-2-[(4R,8R)-4,8,12-trimethyltridecyl]-3,4-dihydro-2H-1-benzopyran-6-ol

> <ALOGPS_LOGP>
8.84

> <JCHEM_LOGP>
10.507717260000002

> <ALOGPS_LOGS>
-7.79

> <JCHEM_MDDR_LIKE_RULE>
0

> <JCHEM_NUMBER_OF_RINGS>
2

> <JCHEM_PHYSIOLOGICAL_CHARGE>
0

> <JCHEM_PKA_STRONGEST_ACIDIC>
10.802178125613777

> <JCHEM_PKA_STRONGEST_BASIC>
-4.852614901775799

> <JCHEM_POLAR_SURFACE_AREA>
29.46

> <JCHEM_REFRACTIVITY>
135.37409999999997

> <JCHEM_ROTATABLE_BOND_COUNT>
12

> <JCHEM_RULE_OF_FIVE>
0

> <ALOGPS_SOLUBILITY>
7.04e-06 g/l

> <JCHEM_TRADITIONAL_IUPAC>
vitamin E

> <JCHEM_VEBER_RULE>
0

> <DRUGBANK_ID>
DB00163

> <SECONDARY_ACCESSION_NUMBERS>
NUTR00061; EXPT03227

> <DRUG_GROUPS>
approved; nutraceutical; vet_approved

> <GENERIC_NAME>
Vitamin E

> <SYNONYMS>
(+)-α-tocopherol; (2R,4'R,8'R)-α-tocopherol; (R,R,R)-α-tocopherol; 5,7,8-trimethyltocol; alpha-tocopherol; d-α-tocopherol

> <PRODUCTS>
24 Multivitamins + Minerals; 50 Plus; AREDS2 Formula; Aces Formula/formule A A S; Aces Tab; Acne C-Patch; Acti-D Alphacopherol Cap 400unit; Acti-D Alphacopherol Cap 800unit; Acti-copherols 200 Cap; Adrien Gagnon Formule A-C-E + Selenium; Advanced AM PM; Am Caps; Animal Shapes; Avon Nutrivance Vitamin E Plus; Bear Essentials; Beta-CE Cap; Beta-carotene 10,000 Iu With Vitamins C & E; Bio-efa Borage Gla 240 Cap; Bio-efa Borage Gla 90 Cap; Bye Bye Burn Lot; C-Nate DHA; C.V. Formula; Calcium PNV; Cavan Prenatal; Cavan-EC SOD DHA; Cedevita Plus Vitamin Supplement; Cedevita Sugar-free Vitamin Supplement; Cell-wise; Cell-wise Natural Source; Cellular Formula; Ch-P Cap; Chewable Multiple Vitamins Plus Extra C; Children's Chewable Multivitamin and Multimineral; Children's Chewable Vit and Min Tab; Childrens Chew Multi Vitamin Tab; Childrens Chewable Tab; Childrens Multiple Vit and Min Chew Tab; CitraNatal Assure; CitraNatal Essence; CitraNatal Harmony 3.0; CitraNatal Medley; Classic Swiss One 10 Multivitamin and Mineral Tab; Co-q10 M.R.B. 100mg and Vitamin E; Co-q10 M.R.B. 60mg; Coenzyme Q10 +; Collag-EN; Coq10 With E400 Iu; Daily Energy Brand Vitamin & Mineral Drink Mix; Daily Supplement Packs; Doctor's Choice Brand for Men; Dr. Chen's Men's Formula; Dr. Waltons Baby Powder; E 100 Cap Natural 100unit; E 100 Iu; E 100 Iu Capsules; E 200 Cap Natural 200unit; E 400 Iu; E 400iu W Selenium 100mcg; E Vitamin 1000 I.U. (natural Source); E-gems-M; E-prime Vitamin E Supplement; Earthpals Children's Chewables Multi-vitamin & Mineral Tablets; Efamol Cap; Emuol V; Enrich Core Pack - Children Vitamin and Mineral Supplement; Evening Primrose Oil Cap; Evening Primrose Oil Cap 500mg W Vit E; Evening Primrose Oil With Vitamin E; Extra 11; Extra Once A Day; Extra-Virt Plus DHA; Fem - Protect; Fem Time Tab; Feminex 300 Tab; Femitab Tab; Floriva; Floriva Plus; Folet One; Folivane-PRx DHA; Food Nutrition Inc. Men's Vitamin and Mineral Supplement; For-2; Formula Cw; Formula Cw-caplet; Formula F L W; Formula F.E.S. Vitamins Tab; Formula Hh; Formula-4 Sx; Gamma Oil; Geri-plus Cap; Great Day/am Formula Tab; Healing Ointment With Vitamin E; Hi Potency Multi Tab; Hoa 1; Homosistrox Capsules; Huile D'onagre Vitamin E; Hyper E Tab; Hypo Vites Tab; Inner Health Vitamin Supplement Capsules; Iron Complex; Kanga-V Multivitamins & Minerals; Kimchi Vitamin chewable multivitamin; Kindervites; L-Methyl PNV DHA; Leritone Antistress; Leritone Magnesium & Vitamine E; Liqui Infant Vitamins; Liqui Vita; Liquical; Liquid Vitamin E; Longevit-E - Capsule; Luna Vitamin and Mineral Bar for Women; M.V.I. Paediatric; MVC-Fluoride; Maintain Multiple Vitamin & Minerals; Maltlevol 12 Liq; Maltlevol Liq; Mangadyn; Manganese 50mg Plus B1 & E Tab; Maxine Vitamin and Mineral Supplement; Mega Plex III - Pck; Mega Plex IV - Pck; Mega Vitaminerals; Men's Biomultiple Vitamin and Mineral Supplement; Mlc; Mr. Tumee Multi-vitamin; Multi #2; Multi 1000; Multi 12 Injection; Multi Enfants Tab; Multi II IV Vi Tab; Multi Plex I - Tab; Multi Plex II - Tab; Multi Tabs; Multi Vitamin and Fluoride; Multi Vitamin, Iron and Fluoride; Multi Vitamines - Liq; Multi-Nate 30; Multi-Vitamin; Multi-force for Women Tab; Multi-kid; Multi-vitamines Enfants Comprime; MultiVitamin with Fluoride Drops; MultiVitamin, Iron and Fluoride Drops; Multicaps; Multinate DHA; Multinate DHA Extra; Multipack II; Multiple Vit Plus Iron Tab; Multiple Vitamins Plus Iron Tab; Multiple Vitamins Tab; Multiple Vitamins and Minerals Capsules; Multitabs; Multivit with Fluoride; Multivitamin and Mineral; Multivitamins W Minerals Extra Strength; Multivitamins and Minerals With Betacarotene Tablets; Multivitamins and Minerals for Men; Multivitamins and Minerals for Women; Multivitamins and Minerals for Young Men; Multivitamins and Minerals for Young Women; Mycellized Vit E Liq 150unit/ml; NESTABS DHA Prenatal Multi-vitamin/Mineral Supplement with DHA/EPA; Nata Komplete; Natelle One; Natural Source Spectrum With Beta Carotene; Natural Source Vitamin E; Natural Source Vitamin E 1000 Iu; Natural Source Vitamin E 400 Iu; Natural Source Vitamin E 800 Iu; Nexa Plus; Nexa Select; Nexa Select Rx Prenatal Vitamin with Plant-Based DHA; Niron Komplete; NovaDHA Baby DHA; NovaFerrum Multivitamin with Iron Pediatric Drops; NovaMV Multivitamin; Now E-400; Nutra Boost; Nutra-clear; Nutria; Nutrol E 200 Cap; Nutrol E-400 Plus Zinc Et Selenium Cap; O-Cal FA multivitamin; OB Complete 400; OB Complete DHA; OB Complete Gold; Olympian Vit E Cap 400unit; Omega-3 Rx Complete; Onccor; One A Day Advance Adults 50+; One A Day Advance Fem; One A Day Multiple Vit W Minerals; One Tablet Daily Mens Formula; Organex E 100; Organex E 400; Organex E 800; Original Bioscal Forte Multi-vitamin Supplement Capsules; P-plus; PM Caps; PNV-Omega; Phytomin E Cap 200unit; Phytomin E Cap 800unit; Poly-Vi-Flor; Poly-Vi-Sol; Pre-Tabs DHA Prenatal Multi-vitamin/Mineral Supplement with DHA/EPA; PreFol-DHA; PreGen DHA; PreNexa; PreNexa premier; PreQue 10; Premium Prenatal; Prenaissance; Prenatal; Prenatal Mega Antioxidant; Prenatal Vi-min; Prenatal Vitamin No 53 Iron Fum Folic Acid Docusate CA DHA; Prenate Elite; Prenate Essential; Pro E Cap 200unit; Pro-gla Caps; Prost-10 Vitamin and Mineral Supplement; RE FAC-x; RE Nata; RE Nata OB; RE Prenatal Multivitamin with Iron; Re Ob 90 DHA; Real Vitamin Supplement Cap; Reaphirm Plant Source DHA; Reliv So Sense Daily Vitamin Supplement; Relnate DHA; Renate; Renate DHA; Revitalize Multi-vitamin and Mineral Complex; Rogenic; Rulavite DHA; Se-Plete DHA; Selenion; Selenium '100' Plus C&e; Selenium + E; Selenium 200mcg Plus C & E Tab; Selenium Plus C & E; Senior Multi One; Silexin; Sincera - Tablets; Sopalamine 3b Plus; Sopalamine/3b Plus C; Stress Tab With Iron and Vitamin E; Stress Tab With Zinc, Copper and Vitamin E; Strovite Forte Caplet; Sun-rype Vitaburst; Super Charged Energy; Super Gardialine Cap 100iu; Super Kids Chewable Multivitamin Multimineral (chewable Tablets); Super Vita-vim With Beta-carotene - Tab; Supplements De Vitamines Et Mineraux; Sveets; Swical-energy 3e Age; Swiss One; Swiss One Multi Vit & Chel Min Tab; Swiss One Multivitamin and Mineral Caplet; Swiss One Timed Release Tab; Synergistic Selenium; TL-Care DHA; TL-Fluorivite; TL-Select; TL-Select DHA; Taron-prex Prenatal; Tendera-OB; Thera Q Plus; Tianshi Calcium With Natural Source Vitamin E Softgel Capsules; Totalvit Plus; Tozal; TriStart ONE; Tricare Prenatal DHA One; Tricare Prenatal DHA One Rx Multivitamin; Tricare Prenatal DHA One With Folate; Triveen-PRx RNF; Udamin Sp; Usana Megavitamin Tablets - Tab; VITAFOL Gummies; Vasula Tab; Vege 1 Daily Tab; Vege Swiss One Multivitamin W Chel Mins Tab; VemaVite-PRx 2 with Fish-Based DHA; Vimeral Tab; Viprot; Virt-Nate DHA; Virt-PN DHA; Virt-PN Plus; Virt-Pn; Virt-Pn DHA; Virt-Select PRENATAL/POSTNATAL; VirtPrex; Vision E - 134iu/cap; Vit E 400unit W Selenium 50mcg; Vita Balance 2000; Vita-E; Vita-vim - Tab; Vita-vim With Beta-carotene - Tab; VitaPhil Aide; Vitafol Caplet; Vitafol Fe Plus; Vitafol OB Caplet; Vitafol One; Vitafol Plus; Vitafol-OB Plus DHA Prenatal Supplement Plus DHA; Vital Be-100; Vitalife - Capsule; Vitamin D3 Dietary Supplement; Vitamin E; Vitamin E 100 Iu Natural Source; Vitamin E 1000 I.U. (natural Source); Vitamin E 1000 Iu - Water Soluble; Vitamin E 1000iu; Vitamin E 200 I.U. (natural Source); Vitamin E 200 Iu Capsules; Vitamin E 200iu Chewable; Vitamin E 200iu Thuna's; Vitamin E 25 Iu Thuna's; Vitamin E 30unit Ont Natural; Vitamin E 400 + Selenium Cap; Vitamin E 400 I.U. (natural Source); Vitamin E 400 Iu; Vitamin E 400 Iu - Capsule; Vitamin E 400 Iu Capsules; Vitamin E 400 Iu USP; Vitamin E 400 Iu and Selenium 100mcg; Vitamin E 400iu; Vitamin E 400unit Cap; Vitamin E 800 I.U.; Vitamin E Acetate Cap 800t; Vitamin E Cap 1000iu; Vitamin E Cap 1000unit; Vitamin E Cap 1000unit USP Natural Source; Vitamin E Cap 100unit; Vitamin E Cap 100unit USP Natural Source; Vitamin E Cap 200iu; Vitamin E Cap 200iu Nf Natural Source; Vitamin E Cap 200unit; Vitamin E Cap 200unit Natural Source; Vitamin E Cap 200unit USP Natural Source; Vitamin E Cap 400iu; Vitamin E Cap 400unit; Vitamin E Cap 400unit Natural Source; Vitamin E Cap 400unit USP Nat Source; Vitamin E Cap 50unit; Vitamin E Cap 800 Unit Natural; Vitamin E Cap 800iunf Natural; Vitamin E Cap 800unit; Vitamin E Cap 800unit USP; Vitamin E Cap USP 1000unit; Vitamin E Cap USP 100iu; Vitamin E Cap USP 200iu; Vitamin E Cap USP Nat Ratio 200unit; Vitamin E Caps USP 200unit; Vitamin E Capsules 400iu; Vitamin E Capsules 800iu; Vitamin E Capsules USP 400 I.U.; Vitamin E Cream W Vitamins A and D; Vitamin E Ointment 50unit/gm; Vitamin E Ont; Vitamin E Ont 1000unit; Vitamin E Ont 30unit/gm; Vitamin E Pure 800 I.U.; Vitamin E With Selenium and Zinc; Vitamin E and Coq10; Vitamine E 100 I.U.; Vitamine E 100cap; Vitamine E 100ui Capsule; Vitamine E 200 Cap; Vitamine E 200 U.I.; Vitamine E 400 U.I.; Vitamine E 400iu Cap; Vitamine E 800 I.U.; Vitamine E 800 Ui Naturelle -cap; Vitamine E Cap 100iu; Vitamine E Cap 100unit; Vitamine E Cap 200unit; Vitamine E Cap 400unit; Vitamine E Cap USP 800unit; Vitamine E Caps 800unit USP; Vitamine E Capsules 25ui; Vitamine E Creme 250unit/ml; Vitamine E25vi Capsule; Vitamines Et Mineraux; Vitamines Et Mineraux Comprimes; Vitamines Et Mineraux Enfants 970; Vitamune; Vitaphil 90 DHA; Vitaphil DHA; Vitaplex; Vl Micel E Liq 100unit/ml; Vol-Plus; Vp-pnv-dha; Vyqua; Webber Vitamin E Cap 400unit Natural Source; Webber Vitamin E Cap 400unit Original; Webber Vitamin E Cap 800unit Original; Women's Biomultiple Vitamin and Mineral Supplement; Women's Change Formula; Z-force Vitamin and Mineral Supplement; Zatean-Pn DHA; Zatean-Pn Plus; antistressSAN; natelle COMPLETE

> <INTERNATIONAL_BRANDS>
Amino-Opti-E; Aquasol E

$$$$

  Mrv0541 09241312552D          

 12 12  0  0  0  0            999 V2000
    0.7145   -0.4125    0.0000 C   0  0  0  0  0  0  0  0  0  0  0  0
    0.7145    0.4125    0.0000 C   0  0  0  0  0  0  0  0  0  0  0  0
    0.0000   -0.8250    0.0000 N   0  0  0  0  0  0  0  0  0  0  0  0
    0.0000    0.8250    0.0000 C   0  0  0  0  0  0  0  0  0  0  0  0
   -0.7145    0.4125    0.0000 C   0  0  0  0  0  0  0  0  0  0  0  0
   -0.7145   -0.4125    0.0000 C   0  0  0  0  0  0  0  0  0  0  0  0
    1.4289    0.8250    0.0000 C   0  0  0  0  0  0  0  0  0  0  0  0
    2.1434    0.4125    0.0000 O   0  0  0  0  0  0  0  0  0  0  0  0
   -1.4289   -0.8250    0.0000 C   0  0  0  0  0  0  0  0  0  0  0  0
   -1.4289    0.8250    0.0000 O   0  0  0  0  0  0  0  0  0  0  0  0
    0.0000    1.6500    0.0000 C   0  0  0  0  0  0  0  0  0  0  0  0
   -0.7145    2.0625    0.0000 O   0  0  0  0  0  0  0  0  0  0  0  0
  2  1  1  0  0  0  0
  7  2  1  0  0  0  0
  1  3  2  0  0  0  0
  4  2  2  0  0  0  0
 11  4  1  0  0  0  0
  5  4  1  0  0  0  0
 10  5  1  0  0  0  0
  6  3  1  0  0  0  0
  6  5  2  0  0  0  0
  9  6  1  0  0  0  0
  8  7  1  0  0  0  0
 11 12  1  0  0  0  0
M  END
> <DATABASE_ID>
DB00165

> <DATABASE_NAME>
drugbank

> <SMILES>
CC1=C(O)C(CO)=C(CO)C=N1

> <INCHI_IDENTIFIER>
InChI=1S/C8H11NO3/c1-5-8(12)7(4-11)6(3-10)2-9-5/h2,10-12H,3-4H2,1H3

> <INCHI_KEY>
LXNHXLLTXMVWPM-UHFFFAOYSA-N

> <FORMULA>
C8H11NO3

> <MOLECULAR_WEIGHT>
169.1778

> <EXACT_MASS>
169.073893223

> <JCHEM_ACCEPTOR_COUNT>
4

> <JCHEM_AVERAGE_POLARIZABILITY>
17.112304740817212

> <JCHEM_BIOAVAILABILITY>
1

> <JCHEM_DONOR_COUNT>
3

> <JCHEM_FORMAL_CHARGE>
0

> <JCHEM_GHOSE_FILTER>
0

> <JCHEM_IUPAC>
4,5-bis(hydroxymethyl)-2-methylpyridin-3-ol

> <ALOGPS_LOGP>
-0.57

> <JCHEM_LOGP>
-0.9513212983333332

> <ALOGPS_LOGS>
-1.02

> <JCHEM_MDDR_LIKE_RULE>
0

> <JCHEM_NUMBER_OF_RINGS>
1

> <JCHEM_PHYSIOLOGICAL_CHARGE>
0

> <JCHEM_PKA>
14.533140285427315

> <JCHEM_PKA_STRONGEST_ACIDIC>
9.397430003835803

> <JCHEM_PKA_STRONGEST_BASIC>
5.584997111043129

> <JCHEM_POLAR_SURFACE_AREA>
73.58000000000001

> <JCHEM_REFRACTIVITY>
44.1053

> <JCHEM_ROTATABLE_BOND_COUNT>
2

> <JCHEM_RULE_OF_FIVE>
1

> <ALOGPS_SOLUBILITY>
1.61e+01 g/l

> <JCHEM_TRADITIONAL_IUPAC>
pyridoxine

> <JCHEM_VEBER_RULE>
0

> <DRUGBANK_ID>
DB00165

> <SECONDARY_ACCESSION_NUMBERS>
NUTR00002; APRD00204

> <DRUG_GROUPS>
approved; investigational; nutraceutical; vet_approved

> <GENERIC_NAME>
Pyridoxine

> <SYNONYMS>
2-methyl-3-hydroxy-4,5-dihydroxymethylpyridine; 3-hydroxy-4,5-bis(hydroxymethyl)-2-methylpyridine; 3-hydroxy-4,5-dimethylol-α-picoline; 5-hydroxy-6-methyl-3,4-pyridinedimethanol; Piridoxina; Pyridoxine; Pyridoxinum; Pyridoxol; Vitamin B6

> <PRODUCTS>
24 Multivitamins + Minerals; 50 Plus; 50 Plus Multiple Vitamins & Minerals; A.R.T.H. Away Formula; Acetabolan III Vitamin and Mineral Supplement; Acetabolan-II Vitamin and Mineral Supplement; Active FE; Active OB; Acv; Adrenogist Tab; Adult Formula 50+; Adult Infuvite Multiple Vitamins; Advanced 2000 Capsules; Advanced AM PM; Advanced B & T Formula; Alertonic; Alkadrenergy Tablets; Allbee C 800 Tab; Allbee With C 550 Cap; Allbee With Vitamin C Cap; Alsimine W Vitamins A D; Am Caps; American Eagle Energizer Plus Vitamin Supplement Drink; American Plus Energy & Vitamin Drink; Amerix Multivitamin; Anaplex Tab; Animal Shapes; Animal Shapes w/Iron Chewtabs; Animi-3; Animi-3 with Vitamin D; Antlerviron; Apo-doxylamine/b6; Aqua-S Supplement; Av-VITE FB; Av-VITE FB Forte; Avon Nutrivance Vitamin E Plus; Avon Vitadvance Multi-kids Complete; AzesChew; B 50 Capsules; B 6 Plus; B C Antistress Cap; B Complex 25mg Vitamin Supplement; B Complex 50 Vitamin Cap; B Complex 50+ Caplet; B Complex 500 Tab; B Complex Plus C 300mg Tab; B Complex Tablets; B Complex W C Forte Cap; B Complex W C and B12 Inj; B Complex W Vit C W Non-med Yeast&liver Tab; B Complex W Vitamin C Fortis Cap; B Complex With C 300mg; B Complex With C 300mg Tab; B Complex With C 550mg; B Compound 50mg Tab; B Plus C 300 mg; B Plus C 300mg Timed Release; B Stress C + Iron & Vite; B Totum 500; B Virol; B With C 500 Cap; B-100 Caps; B-100 Complex Tablets; B-100 Hi Potency B Vitamins Tab; B-100 Vitamin Supplement; B-50 Complex; B-50 Complex Tab; B-50 Hi Potency B Vitamins Tab; B-6 500mg Continuous Released; B-6 Caps 250mg; B-6 Pyridoxine HCL; B-Combo; B-Nexa; B-Serene Rx; B-complex; B-complex 100; B-complex 50; B-complex Tab; B-complex Tablets; B-complex With Vitamin C, Biotin, Folic Acid; B-complex-50 Tab; B-plex; B-plex 100; B-plus - Tab; B50 B Complex Tab; B50 Complex; B6 100mg Pyridoxine HCl; B6 25 Tab 25mg; B6 250 Caplet 250mg; B6 400mg Ctr Tab; B6 Cap 100mg; B6 Plus Tab; B6 Pyridoxine HCl Tab 50mg; B6 Tab 100mg; B6 Tablets 100mg; B6, B12 & Folic Acid; B6, B12 & Folic Acid Multi-vitamin Tablets; B6-niacinamide Tab; BP Vit 3; Bacmin; Baisix; Bal-Care DHA; Bal-Care DHA Essential; Balanced B 125 Srt; Balanced B-100 B-complex Vitamins Tab; Balanced B-100 Timed Release; Balanced B-50 B-complex Vitamins Tab; Balanced B-50 B-complex Vitamins, Timed Rele; Balanced B-50 Complex; Balanced B-complex Vit + Vit C&e Tab; Balanced B100; Balanced B50 Complex; Beminal 500 Tab; Beminal Fortis Elx; Beminal W C Fortis Inj; Beminal With C Fortis Cap; Beminal With C Fortis Pws; Bev B-150; Bio-fen; Biosculpt; Body Rox; Body Tropics Plus Tab; Bonjesta; Bugs Bunny Chew Multi Vit Plus Iron; Bugs Bunny and Friends Multiple Vitamins; BumP DHA; C 106 Tab; C-B Complex; C-Nate DHA; C-apnto-B6 Vitamins W Magnesium Tab; C-force; C. Vit-min Formula; C.A.G. Tab; C.R.D.-force; C.R.T. X Multivitamin & Mineral Powder Mix; CHOpro; Cal M Tab; Calcium Folic Acid Plus D Chewable; Calcium PNV; Carbassist Tablets; Carbaway; Cardiotek-RX; Carthaphy Cap; Cataplex F Tab 2mg; Cavan Alpha; Cavan Folate DHA; Cavan Folate OB; Cavan Heme OB; Cavan One; Cavan Prenatal; Cavan X; Cavan-EC SOD DHA; Cda-21 Vitamins With Non-medicinal Probiotic Complex; Cedevita Plus Vitamin Supplement; Cedevita Sugar-free Vitamin Supplement; Cell Power Boosting Essence; Central-vite 18 Essential; Centratex; Century Complete; Chela Iron Plus C,b Complex; Chela Zinc Plus; Chew.multiple Vits.with Extra C for Children; Chewable Adult Multivitamins With Minerals; Chewable Children's Complete Multivitamins With Essential Minerals; Chewable Multiple Vit Plus Iron for Children; Chewable Multiple Vitamins Plus Extra C; Chewable Multiple Vitamins Plus Iron Tab; Chewable Multiple Vitamins Tab; Chewable Multiple Vitamins for Children; Chewable Multivitamins; Chewable Multivitamins Plus Iron; Children Choice Multivit Chewable Tab; Children Choice Multivitamin W Iron Chew Tab; Children's Chew Multi & Min Tab; Children's Chewable Multi Vit W Iron; Children's Chewable Multi Vitamins; Children's Chewable Multi Vitamins With Iron Tablets; Children's Chewable Multi-vitamin; Children's Chewable Multi-vitamin Complete With Minerals; Children's Chewable Multiple Vit.plus Iron; Children's Chewable Multiple Vitamins (chewable Tablets); Children's Chewable Multiple Vitamins - Tab; Children's Chewable Multiple Vitamins With Extra Vitamin C (chewable Tablets); Children's Chewable Multiple Vitamins With Iron Tablets (chewable Tablets); Children's Chewable Multivitamin Complete With Minerals; Children's Chewable Multivitamin and Multimineral; Children's Chewable Multivitamins With Minerals; Children's Chewable Multivitamins and Minerals; Children's Chewable Tab; Children's Chewable Vit and Min Tab; Children's Chewable With Iron; Children's Multivitamins; Children's Multivitamins With Iron; Children's Vitamins Chewable; Children's Vitamins W Iron Chewable; Childrens Chew Multi Vitamin Tab; Childrens Chewab Vitamin W Chel Minerals; Childrens Chewable Multiple Vitamins; Childrens Chewable Multiple Vitamins Plus Fe; Childrens Chewable Multiple Vitamins Tab; Childrens Chewable Multiple Vitamins W.iron; Childrens Chewable Multivitamins; Childrens Chewable Multivitamins W Iron; Childrens Chewable Tab; Childrens Chewable Vitamin Tab; Childrens Chewable Vitamins; Childrens Chewable Vitamins W Iron; Childrens Multiple Vit and Min Chew Tab; Choice OB DHA; CitraNatal 90 DHA; CitraNatal Assure; CitraNatal B-Calm; CitraNatal DHA; CitraNatal Essence; CitraNatal Harmony; CitraNatal Harmony 3.0; CitraNatal Medley; CitraNatal Rx; Citranatal B-calm; Classic Swiss One 10 Multivitamin and Mineral Tab; Complete Mega B; Complete Multivitamins and Minerals Tablets Timed Release; Complete Multivitamins and Minerals for Children; Complete Natal DHA; Complete-RF Prenatal; CompleteNate Chewable; Complex-75; Complexe B 75mg; Complexe B Compose 75; Complexe B-75; Concept DHA; Concept OB; Corvita; Corvita 150; Corvite; Corvite 150; Corvite FE; Corvite Free; Croq-vit Pour Enfants; Cyroplex; DaVITE; Daily Balance Tab; Daily Energy Brand B-complex; Daily Supplement Packs; Daily-Vite; Dalivit; Deriton; Derma-force; Dermagran Moisturizing Spray; Dexifol; Dia-vite; Dialyvite; Dialyvite 3000; Dialyvite 5000; Dialyvite Supreme D; Dialyvite with Zinc; Diaplex; Diclectin; Diclegis; Divista; Docosavit; Doctor's Choice Brand for Men; Dothelle DHA; Doxylamine Succinate and Pyridoxine Hydrochloride; Doxylamine succinate and pyridoxine hydrochloride; Dp 2000; Dr.Pauhls TOOTHPAST E LIME MANDARIN FLAVOR; Dr.Pauhls TOOTHPAST E PATCHOULI MUSK FLAVOR; Dr.Pauhls TOOTHPAST E VANILLE BLACK TEA FLAVOR; Duet DHA; Duet DHA 400; Duet DHA 400 ec; Duet DHA Balanced; DuetDHA Balanced; DuetDHA Complete; Dynam Ampoule Et Tablet; E.S.T. Complex; E.V.C. Vitamins Tab; EC + Complex; Earthpals Children's Chewables Multi-vitamin & Mineral Tablets; Edge OB; Efferlife Multivitamins and Minerals; Elite OB Prenatal Multivitamin; Ellis Tonic; Energy 80 Prolonged Release Tab; Energy Booster Essence; Enrich Core Pack - Children Vitamin and Mineral Supplement; Envirocomplex; Enviroflex - Tab; Escavite; Escavite D; Escavite Lq; Essential B Tablets; Essential Vitamins and Minerals; Evc - Liq; Evc Liquid Vitamins A,c,b6 With Beta Caro&zn; Everyday Multiple Vitamins; Everyday Multiple Vitamins With Iron; Extra Once A Day; Extra P.N. Vitamin-mineral Drink Mix; Extra-Virt Plus DHA; Ez-flex; FaBB; Fb Formula; Fem - Control; Fem - F.S. Formula; Fem - Pmt; Fem Time Tab; Feminex 300 Tab; Feminique W Iron and Calcium Tab; Femitab Tab; Ferra Naka Plus Vitamins; Fibrik; Fizz Multivitamins for Kids W C Loz; Flexadyn Tab; Flinstones Multiple Plus Iron; Flintstones Multiple Vitamins; Flintstones Multiple Vitamins Plus Iron; Flintstones Multiple Vitamins Tab; Flintstones W Extra C Tab; Floradix Formula Liq; Floravit - Syr; Floriva; Floriva Plus; Focalgin 90 DHA; Focalgin B; Focalgin CA; Folastin; Folbic; Folcal DHA; Folcaps; Folcaps Care One; Folcaps Omega-3; Folet DHA; Folet One; Folgard; Folic Acid Plus; Folic-K; Folica BE; Folica-V; Folika-MG; Folika-NC; Folika-T; Folika-V; Folivane-OB; Folivane-PRx DHA; Folivane-Plus with Ascorbic Acid Precursors; Folplex; Foltabs 800; Foltabs Prenatal; Foltabs Prenatal Plus DHA; Foltx; For Kids Only Chewable Multivit. Plus Iron; For Kids Only Chewable Multivitamins; For Kids Only Chewable Multivitamins - Tab; For Men; For-2; Formula 6100 Cap; Formula A.L.- Tab 17mg; Formula Adr-vitamin B2,b6 W Calpan Tab; Formula B; Formula BP; Formula Ch. Les.; Formula Cm; Formula Cn; Formula D.S.; Formula EC; Formula Est'ro Tab Support; Formula F L W; Formula Fe-vitamin and Mineral Tab; Formula Fm Vitamins & Minerals Tab; Formula Gly; Formula Hh; Formula Im-vitamins and Minerals Tab; Formula Js; Formula Lf; Formula O-care Vitamin and Mineral Supplement; Formula O.C.; Formula Pro-B; Formula R Tab; Formula Statin Support; Formula Wb; Formule No 202 Profil Tab 8.45gm; Fortamines 10 Capsules; Fortamines-10 Comprimes; Fortaplex Inj; Fortistress Tab; Forty Plus Vitamin Supplement; Fusion Activator Formula Tab; Garfield Chewable Multivitamins Tab; Garfield Chewable Multivits Plus Iron Tab; Genicin Vita-Q; Genicin Vita-S; Geritol Liquid; Gestamine Comprimes; Gesticare DHA; Glyco Lite Ect; Glyco Plus Ect; Glyco-aide Tab; Grand Master Formula Tab; Great Day/am Formula Tab; Gynedyn Tab; H. Formula - Tab; Harvest Of Values All B Complex Tab; Hemarexin Tab; HemeNatal OB; HemeNatal OB plus DHA; Hemocyte Plus; Hi Potency B Complex W Chelated Minerals; Hi Potency B52 B Complex Tab; Hi Potency Balanced B-100 Complex - Tab; Hi Potency Klb6 Tab 17mg; Hi Potency Multi Tab; Hi Potency Stress B Tension With C; High Potency Multivitamins & Minerals Caplets; High Potency Vitamin B Complex + C Tab; Hill.vite; Homosismin; Homosistrol Capsules; Homosistrox Capsules; Hylavite; Hylazinc; Hypo Vites Tab; Hyporyl - Tab; INATAL Ultra; Iberet 500; Ifb; Inatal Advance; Infantol Drops; Infuvite Adult Multiple Vitamins; Innersource Tab; Insur-all Vitamin Supplement; Integra Plus; Iron 25mg With Vit B-cmplx, Vit C, Cu & Mo; Iron Polysaccharides Folic Acid DHA; Iron Vitamins B6,b12,c,folic Acid Tab; Iron, Vit & Min Supp; Irospan 24/6; Isotamine B 300; Isotonix Advanced B-complex Vitamins With Potassium and Magnesium; Isotonix Multitech Vitamin Mineral Supplemen; Jenliva; Junior Multi Vitamins - Regular; K.L. Vitamin-mineral; Kanga Sport Vitamins B & C Plus Minerals; Kanga-B Vitamin B Group + C; Kanga-V Multivitamins & Minerals; Kanga-kid Multi-vitamin & Mineral; Kanga-kid Vitamins & Iron; Kaydia Patch; Kenwood Liquid Supplement; Kid's Choice Children's Chewable Vitamins - Tab; Kidmag Vitamins W Magnesium Tab; Kids Stuff Tablets; Kids Stuff With Iron Tablets; Kimchi Vitamin chewable multivitamin; Kindervites; Klb 6 Tab; Klb 6 Tab 8.33mg; Klb6 Tablets 17mg; Kmg Plus; L Fac Tab; L-Methyl MC; L-Methyl-MC; L.C. Supplement; L.I.P. Complex; Leritone Junior; Levomefolate Calcium, Cyanocobalamin and Pyridoxine Hydrochloride; Lgb-dtx Tab 10mg; Lip - Fac Formula; Lipo Factors Plus B6; Lipo-B-C Tab; Lipotrope-plus B6 Tab; Lipotropic Ctr; Lipovitan; Lipovite; Liqui B Complex; Liqui B Complex Plus; Liqui Infant Vitamins; Liqui Vita; Liquid B Complex 50; Livron Plus Ampoule; Livron Plus Tab; Longevit-E - Capsule; Lorid; Low Potency B Complex Tab; Luna Vitamin and Mineral Bar for Women; Lustime Angel; Lustime Unicorn; Lutime; Lysamine Diet Supp Amp-tab; M-Natal Plus; M.V.I. 12; M.V.I. Adult; M.V.I. Paediatric; M.V.I. Pediatric; M.V.I.-12; MVC-Fluoride; MYNEPHROCAPS DIALYSIS/STRESS Vitamin Supplement; Magnesium 50mg With Vitamin B6 Tab; Magnum-75 Vitamin and Mineral Supplement; Maintain Multiple Vitamin & Minerals; Maltlevol 12 Liq; Maltlevol Liq; Mangadyn; Marnatal F; Master Key Multi Vitamin Multi Mineral Formula 2; Materna; Materna - Tab; Materna-tab; Maxi 10 Tab; Maximum Once A Day; Maxine Vitamin and Mineral Supplement; Medi Wrinkle Serum; Mega 13 Multivitamin Formula; Mega Balance; Mega Capsules; Mega Plex III - Pck; Mega Plex IV - Pck; Mega Vitaminerals; Mega-vim 75 With Beta-carotene - Tablets; Megavite Rx; Megavites Tab; Men's; Men's 50+; Men's Biomultiple Vitamin and Mineral Supplement; Men's Multi Master Formula; Meplex T 750; Meth-X Vitamin and Mineral Supplement; Methaver; Mi-Omega NF; Milltrium Senior Vitamin and Mineral Supplement; Min-chex Cap; Mini-B Tab; Mnps Formula Supplement; Molyhen; Moms Choice Rx; Mor-vites Tab; Multi #2; Multi - N.T.O.x Formula - Tab; Multi 1000; Multi 12 Injection; Multi B; Multi Enfants Tab; Multi II IV Vi Tab; Multi Nt-OX; Multi Plex I - Tab; Multi Plex II - Tab; Multi Pro; Multi Rol; Multi Tabs; Multi Vitamin & Minerals; Multi Vitamin - Mineral; Multi Vitamin Drops with Fluoride; Multi Vitamin Drops with Fluoride and Iron; Multi Vitamin Drops with Fluoride with Iron; Multi Vitamin Plus Iron; Multi Vitamin and Fluoride; Multi Vitamin and Mineral vitamin; Multi Vitamin with Fluoride; Multi Vitamin, Iron and Fluoride; Multi Vitamines - Liq; Multi Vitamins & Minerals; Multi Vite Liq Adult; Multi Vite Liq Junior; Multi-11; Multi-12 Pediatric; Multi-12/k1 Pediatric; Multi-Nate 30; Multi-Vit with Fluoride; Multi-Vit with Fluoride and Iron; Multi-Vitamin; Multi-Vitamin Drops with Fluoride and Iron; Multi-Vitamin Fluoride; Multi-Vitamin Fluoride Drops; Multi-Vitamin Fluoride and Iron Drops; Multi-Vitamin With Fluoride; Multi-Vitamin with Fluoride; Multi-actin; Multi-force for Women Tab; Multi-kid; Multi-phyto Capsules; Multi-vitamin Dietary Supplement; Multi-vitamines Enfants Comprime; Multi-vitamins; Multi-vitamins With Minerals; MultiVitamin Drops with Fluoride and Iron; MultiVitamin with Fluoride; MultiVitamin with Fluoride Chewable; MultiVitamin with Fluoride Drops; MultiVitamin, Iron and Fluoride Drops; Multicaps; Multinate DHA; Multinate DHA Extra; Multipack II; Multiple Vit Plus Iron Tab; Multiple Vitamin Plus Minerals Tab; Multiple Vitamin Tab; Multiple Vitamins; Multiple Vitamins & Minerals Tablets; Multiple Vitamins - Tablet; Multiple Vitamins Childrens Chewable; Multiple Vitamins Plus Iron - Tab; Multiple Vitamins Plus Iron Tab; Multiple Vitamins Plus Iron for Women; Multiple Vitamins Tab; Multiple Vitamins W Iron Tab; Multiple Vitamins W Minerals Tab; Multiple Vitamins With Iron; Multiple Vitamins With Iron Tablets; Multiple Vitamins With Minerals Tablets; Multiple Vitamins and Minerals; Multiple Vitamins and Minerals Capsules; Multiple Vitamins and Minerals Tab; Multisol; Multitabs; Multivit Et Fer Ampoules Et Comprimes; Multivit with Fluoride; Multivit-liq; Multivitamin; Multivitamin & Minerals (iron Free); Multivitamin & Multimineral; Multivitamin Drops with Fluoride; Multivitamin with Fluoride; Multivitamin with fluoride; Multivitamine; Multivitamines; Multivitamines Et Mineraux; Multivitamines Et Mineraux Junior Regulier; Multivitamines Et Mineraux Reguliers / Regular Multivitamins and Minerals; Multivitamines Plus Fer Pour Enfants (chewable Tablets); Multivitamines Pour Enfants (chewable Tablets); Multivitamins; Multivitamins W Iron; Multivitamins W Minerals Extra Strength; Multivitamins and Minerals - Complete; Multivitamins and Minerals Tablets; Multivitamins and Minerals With Betacarotene Tablets; Multivitamins and Minerals for Men; Multivitamins and Minerals for Women; Multivitamins and Minerals for Young Men; Multivitamins and Minerals for Young Women; Multivitamins and Multiminerals Formula Regular Tablet; Multivitamins for Children; Multra Plex; Multra With Iron; Munit-E Tablet; Mvc; Mvc 9 Plus 3 Inj; Mvc 9+4 Inj; Myhephron Dialysis and Stress Supplement; N.E.U. Complex; N.U.T. Complex; NEONATAL Complete; NESTABS ABC Prenatal Multi-vitamin/Mineral Supplement with DHA/EPA; NESTABS DHA Prenatal Multi-vitamin/Mineral Supplement with DHA/EPA; NESTABS Prenatal Multi-vitamin/Mineral Supplement; Nata Komplete; NataChew; NataFort; Natal-V RX Multi-vitamin/Multi-mineral; Natalvirt 90dha; Natalvirt Ca; Natavite; Natelle One; Natural Source Spectrum With Beta Carotene; Neo Bex Elixir; Neo-bex; Neo-bex Injectable; Neomultivite; Neonatal DHA; Neonatal Plus Vitamin; Neonatal Vitamin; Neonatal19; NephPlex Rx; Nephrocaps; Nephrocaps-QT; Nephron FA; Nestabs ONE; NeuroBion; Neutral C + Coenzyme Q10 Plus Vitamins & Minerals; New Chapter's D'adamo 4 Your Type Multiple for Type O; Nexa Plus; Nexa Select; Nexa Select Rx Prenatal Vitamin with Plant-Based DHA; Ni-C-E-LE Plus; Niaacinamide Azelaic AC TURMER FA B6 Zinc Ox Copper; Niacex B6; Niacinamide-B6 Cap; NicAzel; NicAzel Doxy Kit; NicAzelFORTE; Nicadan; Nicadan ZX; Nicaprin; Nicazyme; Niva-Fol; Niva-Plus; NovaFerrum Multivitamin with Iron Pediatric Drops; NovaMV Multivitamin; Nrg Plus Liq; NuFera; Numark Multivitamins; Nutra Boost; Nutra-clear; Nutri-Tab OB; Nutri-Tab OB plus DHA; Nutrilite Double X; Nutrol-B-complex; Nutrol-B6 Tab 100mg; O-Cal FA multivitamin; O-Cal Prenatal Vitamin; OB Complete 400; OB Complete DHA; OB Complete Gold; OB Complete Petite; OB Complete Prenatal; Olympian Multi Vit Plus Minerals Tab; Onccor; Oncovite; One A Day Advance Adults; One A Day Advance Adults 50+; One A Day Advance Fem; One A Day Multiple Vit W Minerals; One A Day Tab; One Daily Vitamin and Mineral Dietary Supplement; One Per Day Vitamin and Mineral Dietary Supplement; One Tablet Daily Mens Formula; One-A-day Advance Fem - Tablets; One-A-day Advance Men's; Only One - Tablet; Orange Flavored Crystal Chews Tab; Orifer F; Original Bioscal Forte Multi-vitamin Supplement Capsules; Orti B; Osteo Factors; Osteo Formula; Osteo Regime; Osteo-force; Osteoshield; P & Sp Special Formula; P.N. Vitamin-mineral Drink; P.N.P. Vitamin Drink; P.R.O. Complex; PM Caps; PMS-doxylamine-pyridoxine; PNV Ferrous Fumarate Docusate Folic Acid; PNV Prenatal Plus Multivitamin; PNV Prenatal Vitamin; PNV Prenatal Vitamin Plus Vitamin A; PNV Tabs 29-1; PNV-First; PNV-Omega; PNV-Select; PR Natal 400; PR Natal 400 ec; PR Natal 430; PR Natal 430 ec; PRENATE Enhance; PRENATE Restore; Paire OB Plus DHA; Palm Springs Multvit and Min Tab; Paramettes Adults; Paramettes Chewable Multivitamins Plus Iron; Paramettes Chewable Multivits With Iron Tab; Paramettes Multivits Plus Iron Tab (teens); Paramettes Syrup; Pediatric Infuvite Multiple Vitamins; Pediatric Infuvite Multiple Vitamins for Infusion; Perfect Wrinkle Serum; Perioe lucky fresh - cavity care; Phosthenine Vitamines Et Fer (ampoules Buvable); Phytofortis + Calcium A-D; Phytoplex B Liq; Phytopure; Phytovim Cap; Ply Vi Sol Chewable Tab; Pnv Ob DHA; Pnv-OB-dha; Pnv-VP-U; Pnv-dha; Poly Vi Flor Chewable Tab; Poly-Vi-Flor; Poly-Vi-Flor with Iron; Poly-Vi-Sol; Poly-Vitamin with Fluoride; Polymine Avec Zinc Et Cuivre; Pour Ma Santé; Powertech Vitamin and Mineral Supplement; Pre-Tabs DHA Prenatal Multi-vitamin/Mineral Supplement with DHA/EPA; PreFol-DHA; PreGen DHA; PreGenna; PreNatal 19; PreNatal Vitamins Plus; PreNexa; PreNexa premier; PrePLUS; PreTAB; Prefera OB plus DHA; PreferaOB; PreferaOB ONE; PreferaOB One; PreferaOB plus DHA; Pregvit; Pregvit Folic 4; Pregvit Folic 5; Premel; Premium Prenatal; Premium Prenatal - Tablets; Prena1; Prena1 Chew; Prena1 Plus; Prenaissance; Prenaissance Plus; Prenara; Prenatabs FA; Prenatal; Prenatal Formula Tab; Prenatal Mega Antioxidant; Prenatal Plus; Prenatal Plus Iron; Prenatal Plus Multivitamin Plus DHA MiniCaps; Prenatal Supplement - Tab; Prenatal Vi-min; Prenatal Vitamin No 53 Iron Fum Folic Acid Docusate CA DHA; Prenatal Vitamin and Mineral Supplement; Prenatal Vitamin and Mineral Supplement -tab; Prenatal Vitamin and Mineral Supplement Tab; Prenatal Vitamins Plus; Prenatal Vitamins Plus Low Iron; Prenatal Vitamins and Minerals Tablets; Prenatal and Post Partum Supplement; Prenatal, DHA; Prenate AM; Prenate Chewable; Prenate DHA; Prenate Elite; Prenate Essential; Prenate Mini; Prenate Pixie; Prenate Star; Prenatrix; Prenatryl; Prenatvite; Prenatvite Complete; Prenatvite Plus; Preplus; Prevital Tab; Prim - Royal P.M.T.; PrimaCare; Pro Hers Vanilla; Pro His Mint; Pro Pcos Citrus; Pros-gard Zinc and Vitamin B6 - Capsule; Prosgard; Prost-10 Vitamin and Mineral Supplement; PureFe OB Plus; PureFe Plus; PureVit DualFe Plus; Pyridoxen Tab 50mg; Pyridoxine; Pyridoxine HCl Inj 100mg/ml; Pyridoxine HCl Tab 100mg; Pyridoxine HCl Tab 25mg; Pyridoxine HCl Tab 50mg; Pyridoxine Hci; Pyridoxine Hydrochloride; Pyridoxine Hydrochloride Injection 100mg/ml; Pyridoxine Hydrochloride Injection USP 100 mg/ml; Pyridoxine Hydrochloride Injection, USP; Pyridoxine-S Tab 50mg; Q.T. #4 Vitamin and Mineral Dietary Supplement; Q.T. Vitamin and Mineral Drink Mix; Quflora FE; Quflora FE Pediatric Drops; Quflora Gummies; Quflora Pediatric; Quflora Pediatric Drops; R.E.S. Complex; RE FAC-x; RE Nata; RE Nata OB; RE Prenatal Multivitamin with Iron; Re Ob 90 DHA; Reaphirm Plant Source DHA; Recal D; Red American Eagle Vitamin Supplement Drink; Red Bull; RediChew; Redoxon-cal; Reebok; Reliv So Sense Daily Vitamin Supplement; Relnate DHA; Renal Caps Dialysis/Stress Vitamin Supplement; Renate; Renate DHA; Reno Caps; Replavite; Revit Multi-vitamins and Minerals; Revit Plus Cap; Revitalize Multi-vitamin and Mineral Complex; Revitex Ampoules Et Comprimes; Revival 1 Tab; Right Choice A.M. Multi Formula - Caplet; Rogenic; Rulavite DHA; Se-Care Chewable; Se-Care Conceive; Se-Natal; Se-Natal 19; Se-Natal 19 Chewable; Se-Natal One; Se-Plete DHA; Se-Tan DHA; Se-Tan PLUS; Select OB; Select-OB Plus DHA Prenatal Supplement Plus DHA; Senior Multi One; SetonET; SetonET-EC; Shen Min Vitamin Supplement; Sibergin B - Cap; Snow White Ampoule; Solaray; Somarexin and C 1000; Somavit Brand Vitamins and Minerals Complex; Soothe; Sopalamine 3b Plus; Sopalamine/3b Plus C; Sopalamine/3b Tab; Spd Tab; Spectrum 2 Cap; Spectrum Performa Multivitamins and Minerals Tablets; Stress B & C Caplet; Stress B Capsules With Vitamin C; Stress B Complex With C and E Tab; Stress B Complex With C, E & Iron; Stress B Complex With C, E and Iron Tab; Stress B Complex With C,e, Zinc and Copper; Stress B With 1000 Mg Vitamin C; Stress B&c Tab; Stress B-complex Plus Iron With Vitamins C&e; Stress Complex 600 Avec Vit E Cuivre Zinc; Stress Ctr Srt; Stress Formula; Stress Formula + Iron; Stress Formula B-comp + 500mg Vit C Tab; Stress Formula Multi-B Comp + 500mg Vit C Cap; Stress Formula Multivitamin Tablets USP; Stress Formula Tab; Stress Formula Vit B With C Complex; Stress Forte Plus Lipotropic Factors; Stress Tab; Stress Tab With Iron and Vitamin E; Stress Tab With Zinc, Copper and Vitamin E; Stress Tablets; Stress Vitamin B With C Complex Tablets; Stressmates; Stresstabs + Zinc-copper; Strovite Forte Caplet; Strovite One Caplets; Sun-rype Vitaburst; Super B Compound W 500mg Vit C; Super Charged Energy; Super Daily No 2; Super Kids Chewable Multivitamin Multimineral (chewable Tablets); Super Klb6 Tab 17mg; Super Multi; Super Pantoplex; Super Stress Capsules; Super Stress Mega B Plus 1000mg Vit C Tab; Super Vita Vim Multivitamins and Minerals; Super Vita-vim With Beta-carotene - Tab; Super Vitalex Ampoule Buvable; Super-pote Vitamin Supplement; Supplement De Multivitamines Infusion Arome Fruits Rouges; Supravite 10ml Ampoule; Supravite Bouteille 250ml; Supravite C 1000; Supravite Pour Enfants; Supravite Stress Avec Vit E; Supravite Stress Avec Vit E Cuivre Et Zinc; Supravite Stress Avec Vit E Et Fer; Surbex 500 Filmtab; Surbex-500 With Iron; Surbex-500 With Zinc; Swical-energy 3e Age; Swical-energy-2; Swiss One; Swiss One Multi Vit & Chel Min Tab; Swiss One Multivitamin and Mineral Caplet; Swiss One Timed Release Tab; Swiss Total One; T.R.I. B-plex Src; TL Gard Rx; TL-Care DHA; TL-Fluorivite; TL-Folate; TL-Select; TL-Select DHA; TRONVite; Taliment; Taliva; Tandem DHA; Tandem OB; Tandem Plus; Tar-end; Taron BC; Taron-C DHA; Taron-prex Prenatal; Tendera-OB; Teva-doxylamine/pyridoxine Dr; Thrivite 19; Thrivite Rx; Time Release B 100 Compound - Tablet; Timed Release B Complex 100 Srt; Timed Release B-complex 100; Timed Release B-complex 50; Timed Release Vita-vim Srt; Tini-cal Ampoules; Tobakient; Toni Com Liq; Tonicol Et A-D-C Ampoules/comprimes; Total Living Concepts Formula One - Tab; Totalvit Plus; Tozal; Tri Adrenopan; Tri-Zel; TriAdvance; TriStart DHA; TriStart ONE; Tricare Prenatal; Tricare Prenatal 2-part Daily Prenatal Vitamin System; Tricare Prenatal Compleat; Tricare Prenatal DHA One; Tricare Prenatal DHA One Rx Multivitamin; Tricare Prenatal DHA One With Folate; Tricare Prenatal Quick Dissolve; Trinatal GT; Trinatal Rx 1; Trinatal Ultra; TriphroCaps; Triveen-Duo DHA; Triveen-PRx RNF; Twin Ultra Liquid Fruit Punch Flavor; Twin Ultra Liquid Grape Flavor; Twin Ultra Liquid Lemon-lime Flavor; Twin Ultra Liquid Orange Flavor; Udamin Sp; Ultimate OB DHA; UltimateCare ONE; UltimateCare ONE NF; Ultr F/b E.S. Mega Lipotropic Fmla W B6bet; Ultra Enerforce; Ultra Hr; Usana Megavitamin Tablets - Tab; V & M Vitamin and Mineral Supplement; V-Natal; VIL-Rx; VITAFOL Gummies; VP CH Plus; VP CH Ultra; VP-HEME One; VP-Vite Rx; Vasculine; Vasodyn Tab; Vasula Tab; Vc II; Vege 1 Daily Tab; Vege Swiss One Multivitamin W Chel Mins Tab; VemaVite-PRx 2 with Fish-Based DHA; Vena-Bal DHA; Viamon Ampoules Et Comprimes; Vigo Multivitamins Drops/lozenge; Vimeral Tab; Vinacal; Vinate AZ; Vinate Care; Viprot; Virt Nate; Virt Vite GT; Virt-Advance; Virt-Bal DHA Plus; Virt-C DHA; Virt-Caps; Virt-Care One; Virt-Gard; Virt-Nate; Virt-Nate DHA; Virt-PN; Virt-PN DHA; Virt-PN Plus; Virt-Pn; Virt-Pn DHA; Virt-Select PRENATAL/POSTNATAL; Virt-Tabs; Virt-Vite; Virt-Vite Forte; Virt-Vite Plus; VirtPrex; Vit B Complex Ctr; Vit B Complex Plus Vit C 550mg; Vit B6 Ctr Srt 100mg; Vit B6 Pyridoxine HCl Tab 50mg USP; Vit B6 Tab 250mg; Vit-HA Multi Vitamin and Zinc Supplement; Vita B + C 500 Tab; Vita B Complex Tab; Vita Balance 2000; Vita Day Tab; Vita Plex Tab; Vita Vim Multivitamins and Minerals Tab; Vita Vim With Beta Carotene-caplet; Vita-B; Vita-B-75 Cap; Vita-doxine Cap 250mg; Vita-vim - Tab; Vita-vim With Beta-carotene - Tab; Vita-worth B-complex Tablets; VitaPhil Aide; VitaXyme; Vitabanks Vitamin Tab; Vitachrom Gc; Vitaday Junior Tab; Vitafant; Vitafer - Liq; Vitaflex Dietary Suplement; Vitafol; Vitafol Caplet; Vitafol Fe Plus; Vitafol Nano; Vitafol OB Caplet; Vitafol One; Vitafol Plus; Vitafol Ultra; Vitafol-OB Plus DHA Prenatal Supplement Plus DHA; Vital Be-100; Vital-D Rx; Vitalife - Capsule; Vitamin & Mineral Formula 1 Dietary Supplement; Vitamin B + C Cap; Vitamin B Complex; Vitamin B Complex + C 300mg Cap; Vitamin B Complex + C 600mg Tab; Vitamin B Complex 100; Vitamin B Complex 100 Tab; Vitamin B Complex 50; Vitamin B Complex Plus 300mg Vitamin C; Vitamin B Complex Plus C 300mg Timed Release; Vitamin B Complex Suppl; Vitamin B Complex Tab; Vitamin B Complex W C 300mg Tab; Vitamin B Complex W C Tab; Vitamin B Compound Tab; Vitamin B Compound W C Tab 500mg; Vitamin B Compound W Vit C 250mg Tab; Vitamin B Compound With Vitamin C Fortis Capsule Dtc; Vitamin B Cpd W Vit C Tab; Vitamin B Tablets; Vitamin B-6 100mg; Vitamin B-6 100mg Tab; Vitamin B-6 17mg Tab; Vitamin B-6 200mg; Vitamin B-6 50 Mg Tablet; Vitamin B-6 Tab 200mg; Vitamin B-Complex; Vitamin B6; Vitamin B6 & B12 With Folic Acid; Vitamin B6 100 Mg USP; Vitamin B6 100 mg; Vitamin B6 100mg; Vitamin B6 100mg Caplet; Vitamin B6 100mg Tab; Vitamin B6 200mg; Vitamin B6 250 Mg Capsules; Vitamin B6 50mg; Vitamin B6 50mg Tab; Vitamin B6 Cap 250mg; Vitamin B6 Capsules 100mg; Vitamin B6 Capsules 3.5mg; Vitamin B6 Tab 100mg; Vitamin B6 Tab 100mg USP; Vitamin B6 Tab 250mg; Vitamin B6 Tab 25mg; Vitamin B6 Tab 50mg; Vitamin B6 Tablet; Vitamin B6 Tablets 250mg; Vitamin B6 Tablets-250mg; Vitamine 110 Liq; Vitamine B6 100 Mg - Tablet; Vitamine B6 100mg; Vitamine B6 25mg Comprime; Vitamine B6 Tab 100mg USP; Vitamine B6 Tab 250mg; Vitamine B6 Tab 25mg USP Chewable; Vitamine Du Groupe B Plus Fer - Liq; Vitamines Et Mineraux; Vitamines Et Mineraux Comprimes; Vitamines Et Mineraux Enfants 970; Vitamines Pour Bebes Et Enfants; Vitamune; Vitaphil 90 DHA; Vitaphil DHA; Vitaplex; Vitasure; Vitazyme; Vitogen B Stress C Vit E Zinc & Cop; Vitogen B Stress C600; Vitogen Multiple Vitamins Tab; Vitrexate; Vitrexate FE; Vitrexyl; Vitrexyl plus Iron; Viva CT Prenatal; Viva Kids - Tab; Vol-Care Rx; Vol-Nate; Vol-Plus; Vol-Tab Rx; Vontee; Vp-CH-pnv; Vp-ggr-B6; Vp-heme Ob; Vp-heme Ob DHA; Vp-pnv-dha; Vp-zel; Vtb Vitamin and Mineral Supplement; Vyo Cylate - Pwr; Vyqua; Wellness Formula; WesTab Mini; WesTab Plus; WestGel DHA; Women's Biomultiple Vitamin and Mineral Supplement; Women's Change Formula; Women's Formula; Xvite; Z Bec Tab; Z-force Vitamin and Mineral Supplement; Z-mass PM Vitamin and Mineral Supplement; Zatean-CH; Zatean-Pn; Zatean-Pn DHA; Zatean-Pn Plus; Zinc Plus Vitamin B6 Tab; Zinc Plus Vitamins C & B6 Lozenges; Zingiber; Zoo Chews; Zoo Chews Plus Iron; ahoSAN; bioJET; healthy mamaBE WELL ROUNDED BE WELL ROUNDED; hormaSAN forte; natelle COMPLETE; tensioSAN; vitaMedMD One Rx; vitaMedMD Rx Plus

> <INTERNATIONAL_BRANDS>
Becilan; Beesix; Benadon; Bonasanit; Hexa-Betalin; Hexobion; Nestrex

> <SALTS>
Pyridoxine hydrochloride

$$$$

  Mrv1718006191812362D          

 12 12  0  0  0  0            999 V2000
   -2.1434    0.2584    0.0000 C   0  0  0  0  0  0  0  0  0  0  0  0
   -1.7309   -1.0110    0.0000 S   0  0  0  0  0  0  0  0  0  0  0  0
   -2.8108   -0.2264    0.0000 C   0  0  0  0  0  0  0  0  0  0  0  0
   -2.5559   -1.0110    0.0000 S   0  0  0  0  0  0  0  0  0  0  0  0
   -1.4760   -0.2264    0.0000 C   0  0  2  0  0  0  0  0  0  0  0  0
   -0.7615    0.1860    0.0000 C   0  0  0  0  0  0  0  0  0  0  0  0
   -0.0470   -0.2264    0.0000 C   0  0  0  0  0  0  0  0  0  0  0  0
    0.6674    0.1860    0.0000 C   0  0  0  0  0  0  0  0  0  0  0  0
    1.3818   -0.2264    0.0000 C   0  0  0  0  0  0  0  0  0  0  0  0
    2.0963    0.1860    0.0000 C   0  0  0  0  0  0  0  0  0  0  0  0
    2.0963    1.0110    0.0000 O   0  0  0  0  0  0  0  0  0  0  0  0
    2.8108   -0.2264    0.0000 O   0  0  0  0  0  0  0  0  0  0  0  0
  5  1  1  0  0  0  0
  5  2  1  0  0  0  0
  1  3  1  0  0  0  0
  2  4  1  0  0  0  0
  3  4  1  0  0  0  0
  5  6  1  1  0  0  0
  6  7  1  0  0  0  0
  7  8  1  0  0  0  0
  8  9  1  0  0  0  0
  9 10  1  0  0  0  0
 10 12  1  0  0  0  0
 10 11  2  0  0  0  0
M  END
> <DATABASE_ID>
DB00166

> <DATABASE_NAME>
drugbank

> <SMILES>
OC(=O)CCCC[C@@H]1CCSS1

> <INCHI_IDENTIFIER>
InChI=1S/C8H14O2S2/c9-8(10)4-2-1-3-7-5-6-11-12-7/h7H,1-6H2,(H,9,10)/t7-/m1/s1

> <INCHI_KEY>
AGBQKNBQESQNJD-SSDOTTSWSA-N

> <FORMULA>
C8H14O2S2

> <MOLECULAR_WEIGHT>
206.326

> <EXACT_MASS>
206.043521072

> <JCHEM_ACCEPTOR_COUNT>
2

> <JCHEM_ATOM_COUNT>
26

> <JCHEM_AVERAGE_POLARIZABILITY>
21.744975428939433

> <JCHEM_BIOAVAILABILITY>
1

> <JCHEM_DONOR_COUNT>
1

> <JCHEM_FORMAL_CHARGE>
0

> <JCHEM_GHOSE_FILTER>
1

> <JCHEM_IUPAC>
5-[(3R)-1,2-dithiolan-3-yl]pentanoic acid

> <ALOGPS_LOGP>
2.75

> <JCHEM_LOGP>
2.1137794076666667

> <ALOGPS_LOGS>
-2.96

> <JCHEM_MDDR_LIKE_RULE>
0

> <JCHEM_NUMBER_OF_RINGS>
1

> <JCHEM_PHYSIOLOGICAL_CHARGE>
-1

> <JCHEM_PKA_STRONGEST_ACIDIC>
4.523468122735193

> <JCHEM_POLAR_SURFACE_AREA>
37.3

> <JCHEM_REFRACTIVITY>
54.3714

> <JCHEM_ROTATABLE_BOND_COUNT>
5

> <JCHEM_RULE_OF_FIVE>
1

> <ALOGPS_SOLUBILITY>
2.24e-01 g/l

> <JCHEM_TRADITIONAL_IUPAC>
lipoic acid

> <JCHEM_VEBER_RULE>
1

> <DRUGBANK_ID>
DB00166

> <SECONDARY_ACCESSION_NUMBERS>
NUTR00035

> <DRUG_GROUPS>
approved; investigational; nutraceutical

> <GENERIC_NAME>
Lipoic acid

> <SYNONYMS>
(+)-alpha-Lipoic acid; (R)-(+)-Lipoate; (R)-(+)-lipoic acid; (R)-1,2-Dithiolane-3-pentanoic acid; (R)-1,2-dithiolane-3-valeric acid; (R)-6,8-thioctic acid; (R)-lipoic acid; Alpha lipoic acid; alpha-Lipoic acid; alpha-Liponsäure; D-thioctic acid; Lipoic acid; R-(+)-thioctic acid; R-alpha-lipoic acid; Thioctic acid; Thioctic acid D-form; α-lipoic acid

> <PRODUCTS>
Corvita; Corvite; Corvite Free; Dyzbac; Fibrik; Folic-K; Folica-V; Mebolex; Medi-10; Methazel; Nicadan; Noxicare; Oveeza; Strovite One Caplets; Tru-micin; Vita-Rx Diabetic Vitamin

> <INTERNATIONAL_BRANDS>
Biletan

$$$$
167
  Mrv0541 02231214292D          

  9  8  0  0  1  0            999 V2000
    5.2224   -0.0784    0.0000 O   0  0  0  0  0  0  0  0  0  0  0  0
    4.5080    1.1592    0.0000 O   0  0  0  0  0  0  0  0  0  0  0  0
    3.7935   -0.9034    0.0000 N   0  0  0  0  0  0  0  0  0  0  0  0
    3.0791    0.3341    0.0000 C   0  0  2  0  0  0  0  0  0  0  0  0
    3.7935   -0.0784    0.0000 C   0  0  1  0  0  0  0  0  0  0  0  0
    2.3645   -0.0784    0.0000 C   0  0  0  0  0  0  0  0  0  0  0  0
    3.0791    1.1592    0.0000 C   0  0  0  0  0  0  0  0  0  0  0  0
    1.6500    0.3341    0.0000 C   0  0  0  0  0  0  0  0  0  0  0  0
    4.5080    0.3341    0.0000 C   0  0  0  0  0  0  0  0  0  0  0  0
  1  9  1  0  0  0  0
  2  9  2  0  0  0  0
  5  3  1  1  0  0  0
  4  5  1  0  0  0  0
  4  6  1  0  0  0  0
  4  7  1  6  0  0  0
  5  9  1  0  0  0  0
  6  8  1  0  0  0  0
M  END
> <DATABASE_ID>
DB00167

> <DATABASE_NAME>
drugbank

> <SMILES>
CC[C@H](C)[C@H](N)C(O)=O

> <INCHI_IDENTIFIER>
InChI=1S/C6H13NO2/c1-3-4(2)5(7)6(8)9/h4-5H,3,7H2,1-2H3,(H,8,9)/t4-,5-/m0/s1

> <INCHI_KEY>
AGPKZVBTJJNPAG-WHFBIAKZSA-N

> <FORMULA>
C6H13NO2

> <MOLECULAR_WEIGHT>
131.1729

> <EXACT_MASS>
131.094628665

> <JCHEM_ACCEPTOR_COUNT>
3

> <JCHEM_AVERAGE_POLARIZABILITY>
14.114543432356673

> <JCHEM_BIOAVAILABILITY>
1

> <JCHEM_DONOR_COUNT>
2

> <JCHEM_FORMAL_CHARGE>
0

> <JCHEM_GHOSE_FILTER>
0

> <JCHEM_IUPAC>
(2S,3S)-2-amino-3-methylpentanoic acid

> <ALOGPS_LOGP>
-1.73

> <JCHEM_LOGP>
-1.5084066056000942

> <ALOGPS_LOGS>
-0.06

> <JCHEM_MDDR_LIKE_RULE>
0

> <JCHEM_NUMBER_OF_RINGS>
0

> <JCHEM_PHYSIOLOGICAL_CHARGE>
0

> <JCHEM_PKA_STRONGEST_ACIDIC>
2.7913082723326537

> <JCHEM_PKA_STRONGEST_BASIC>
9.591345628135606

> <JCHEM_POLAR_SURFACE_AREA>
63.31999999999999

> <JCHEM_REFRACTIVITY>
34.093900000000005

> <JCHEM_ROTATABLE_BOND_COUNT>
3

> <JCHEM_RULE_OF_FIVE>
1

> <ALOGPS_SOLUBILITY>
1.14e+02 g/l

> <JCHEM_TRADITIONAL_IUPAC>
L-isoleucine

> <JCHEM_VEBER_RULE>
0

> <DRUGBANK_ID>
DB00167

> <SECONDARY_ACCESSION_NUMBERS>
NUTR00031

> <DRUG_GROUPS>
investigational; nutraceutical

> <GENERIC_NAME>
Isoleucine

> <SYNONYMS>
(2S,3S)-2-Amino-3-methylpentanoic acid; 2-Amino-3-methylvaleric acid; alpha-amino-beta-methylvaleric acid; Ile; Isoleucina; Isoleucine; Isoleucinum; L-Isoleucine; α-amino-β-methylvaleric acid

> <PRODUCTS>
2.5% Travasol Amino Acid Injection With Electrolytes In 10% Dextrose; 2.5% Travasol Amino Acid Injection With Electrolytes In 10% Dextrose Clinimix; 2.5% Travasol Amino Acid Injection Without Electrolytes In 10% Dextrose Quickmix; 2.5%travasol Amino Acid InJ.W.eleC.W.25%dex; 2.75% Travas. Amino Acid InJ.W.elecw.25%dex; 2.75% Travasol Amino Acid Injection With Electrolytes In 25% Dextrose Quickmix; 2.75% Travasol Amino Acid Injection With Electrolytes In 5% Dextrose Quickmix; 2.75%travasol Amino Acid InJ.W.eleC.W.5%dex.; 20% Prosol; 4.25% Amino Acid Injection Without Electrolytes In 20% Dextrose Quickmix; 4.25% Travasol Amino Acid Injection With Electrolytes In 10% Dextrose; 4.25% Travasol Amino Acid Injection With Electrolytes In 20% Dextrose; 4.25% Travasol Amino Acid Injection With Electrolytes In 20% Dextrose Quickmix; 4.25% Travasol Amino Acid Injection With Electrolytes In 25% Dextrose; 4.25% Travasol Amino Acid Injection With Electrolytes In 5% Dextrose Quickmix; 4.25% Travasol Amino Acid Injection Without Electrlytes In 10% Dextrose; 4.25% Travasol Amino Acid Injection Without Electrolytes In 20% Dextrose; 4.25% Travasol Amino Acid Injection Without Electrolytes In 25% Dextrose; 4.25% Travasol Amino Acid Without Electrolytes In 5% Dextrose Quickmix; 4.25%trav. Amino Acid InJ.W.O.elect.5%dext.; 4.25%travasol Amino Acid InJ.W.elecw.5%dex.; 5% Travasol Amino Acid Injection With Electrolytes In 20% Dextrose; 5% Travasol Amino Acid Injection Without Electrolytes In 20% Dextrose; 5% Travasol Amino Acid Injection Without Electrolytes In 25% Dextrose; 8.5% Freamine III; ASCE plus Derma Signal Kit SRLV S; Aminosyn; Aminosyn 10% W Electrolytes; Aminosyn 3.5% M; Aminosyn 5%; Aminosyn 7%; Aminosyn 8.5%; Aminosyn 8.5% Injection With Electrolytes; Aminosyn HF; Aminosyn II; Aminosyn II 10% With Electrolytes; Aminosyn II 5% Inj; Aminosyn II 7% Injection; Aminosyn II 7% M In 10% Dextrose(dual Chamber); Aminosyn II 7% With 10% Dextrose; Aminosyn II 7% With 50% Dextrose; Aminosyn II 8.5% Injection; Aminosyn II 8.5% M In 20% Dextrose (dual Chamber); Aminosyn II 8.5% With 50% Dextrose; Aminosyn II In Dextrose Injection; Aminosyn II and Dextrose; Aminosyn II in Dextrose; Aminosyn II with Electrolytes; Aminosyn II with Electrolytes in Dextrose with Calcium; Aminosyn RF; Aminosyn RF Injection; Aminosyn Sulfite Free; Aminosyn-PF; Aminosyn-PF 10%; Aminosyn-PF 7%; Bcaa 4% Inj; BranchAmin; Clinimix; Clinimix 2.5% Travasol Aa Without Electrolytes In 10% Dextrose Injec; Clinimix E; Clinisol; FreAmine HBC; FreAmine III; HepatAmine; Hepatasol; Kabiven; NephrAmine; Nephramine Liq IV; Novamine; Nutrineal Pd4; Olimel 3.3% E; Olimel 4.4%; Olimel 4.4% E; Olimel 5.7%; Olimel 5.7% E; Olimel 7.6%; Olimel 7.6% E; Perikabiven; Periolimel 2.5% E; Plenamine; Premasol - sulfite-free (Amino Acid); Primene; Primene 10%; Primene 10%-liq IV; ProSol; ProcalAmine; Quick Mix 2.5% Travasol Aa With Electrolytes With 25% Dextrose Injec; RenAmin; Renamin (amino Acids) Injection; Smofkabiven; Smofkabiven Electrolyte Free; Smofkabiven Extra Nitrogen; Smofkabiven Extra Nitrogen Electrolyte Free; Smofkabiven Peripheral; Synthamin; Travasol; Travasol Amino Acid Inj 5.5%; Travasol Amino Acid Inj 8.5%; Travasol E; Travasol Inj Without Electrolytes 5.5%; Travasol Inj Without Electrolytes 8.5%; TrophAmine; Vamin 18 Electrolyte-free; Vamin N

$$$$

  Mrv0541 04191212102D          

 21 21  0  0  0  0            999 V2000
   -4.5964   -0.8839    0.0000 C   0  0  0  0  0  0  0  0  0  0  0  0
   -3.8820   -0.4714    0.0000 C   0  0  0  0  0  0  0  0  0  0  0  0
   -3.1675   -0.8839    0.0000 C   0  0  1  0  0  0  0  0  0  0  0  0
   -2.4530   -0.4714    0.0000 C   0  0  0  0  0  0  0  0  0  0  0  0
   -1.7385   -0.8839    0.0000 N   0  0  0  0  0  0  0  0  0  0  0  0
   -1.0241   -0.4714    0.0000 C   0  0  1  0  0  0  0  0  0  0  0  0
   -0.3096   -0.8839    0.0000 C   0  0  0  0  0  0  0  0  0  0  0  0
    0.4049   -0.4714    0.0000 C   0  0  0  0  0  0  0  0  0  0  0  0
    1.1193    0.7661    0.0000 C   0  0  0  0  0  0  0  0  0  0  0  0
    0.4049    0.3536    0.0000 C   0  0  0  0  0  0  0  0  0  0  0  0
    1.1193   -0.8839    0.0000 C   0  0  0  0  0  0  0  0  0  0  0  0
    1.8338   -0.4714    0.0000 C   0  0  0  0  0  0  0  0  0  0  0  0
    1.8338    0.3536    0.0000 C   0  0  0  0  0  0  0  0  0  0  0  0
   -4.5964   -1.7089    0.0000 O   0  0  0  0  0  0  0  0  0  0  0  0
   -5.3109   -0.4714    0.0000 O   0  0  0  0  0  0  0  0  0  0  0  0
   -3.1675   -1.7089    0.0000 N   0  0  0  0  0  0  0  0  0  0  0  0
   -2.4530    0.3536    0.0000 O   0  0  0  0  0  0  0  0  0  0  0  0
   -1.0241    0.3536    0.0000 C   0  0  0  0  0  0  0  0  0  0  0  0
   -1.7385    0.7661    0.0000 O   0  0  0  0  0  0  0  0  0  0  0  0
   -0.3096    0.7661    0.0000 O   0  0  0  0  0  0  0  0  0  0  0  0
   -0.3096    1.5911    0.0000 C   0  0  0  0  0  0  0  0  0  0  0  0
  1  2  1  0  0  0  0
  2  3  1  0  0  0  0
  3  4  1  0  0  0  0
  4  5  1  0  0  0  0
  5  6  1  0  0  0  0
  6  7  1  0  0  0  0
  7  8  1  0  0  0  0
 10  8  2  0  0  0  0
  8 11  1  0  0  0  0
  9 10  1  0  0  0  0
  9 13  2  0  0  0  0
 11 12  2  0  0  0  0
 12 13  1  0  0  0  0
  1 14  2  0  0  0  0
  1 15  1  0  0  0  0
  3 16  1  1  0  0  0
  4 17  2  0  0  0  0
  6 18  1  6  0  0  0
 18 19  2  0  0  0  0
 18 20  1  0  0  0  0
 20 21  1  0  0  0  0
M  END
> <DATABASE_ID>
DB00168

> <DATABASE_NAME>
drugbank

> <SMILES>
COC(=O)[C@H](CC1=CC=CC=C1)NC(=O)[C@@H](N)CC(O)=O

> <INCHI_IDENTIFIER>
InChI=1S/C14H18N2O5/c1-21-14(20)11(7-9-5-3-2-4-6-9)16-13(19)10(15)8-12(17)18/h2-6,10-11H,7-8,15H2,1H3,(H,16,19)(H,17,18)/t10-,11-/m0/s1

> <INCHI_KEY>
IAOZJIPTCAWIRG-QWRGUYRKSA-N

> <FORMULA>
C14H18N2O5

> <MOLECULAR_WEIGHT>
294.3031

> <EXACT_MASS>
294.121571696

> <JCHEM_ACCEPTOR_COUNT>
5

> <JCHEM_AVERAGE_POLARIZABILITY>
29.58065029218276

> <JCHEM_BIOAVAILABILITY>
1

> <JCHEM_DONOR_COUNT>
3

> <JCHEM_FORMAL_CHARGE>
0

> <JCHEM_GHOSE_FILTER>
0

> <JCHEM_IUPAC>
(3S)-3-amino-3-{[(2S)-1-methoxy-1-oxo-3-phenylpropan-2-yl]carbamoyl}propanoic acid

> <ALOGPS_LOGP>
-1.18

> <JCHEM_LOGP>
-2.218210535836386

> <ALOGPS_LOGS>
-2.65

> <JCHEM_MDDR_LIKE_RULE>
0

> <JCHEM_NUMBER_OF_RINGS>
1

> <JCHEM_PHYSIOLOGICAL_CHARGE>
0

> <JCHEM_PKA>
12.17607698877404

> <JCHEM_PKA_STRONGEST_ACIDIC>
3.5257229983189755

> <JCHEM_PKA_STRONGEST_BASIC>
8.52525108935207

> <JCHEM_POLAR_SURFACE_AREA>
118.71999999999998

> <JCHEM_REFRACTIVITY>
73.2182

> <JCHEM_ROTATABLE_BOND_COUNT>
8

> <JCHEM_RULE_OF_FIVE>
1

> <ALOGPS_SOLUBILITY>
6.52e-01 g/l

> <JCHEM_TRADITIONAL_IUPAC>
aspartame

> <JCHEM_VEBER_RULE>
0

> <DRUGBANK_ID>
DB00168

> <SECONDARY_ACCESSION_NUMBERS>
NUTR00046

> <DRUG_GROUPS>
investigational; nutraceutical

> <GENERIC_NAME>
Aspartame

> <SYNONYMS>
1-Methyl N-L-alpha-aspartyl-L-phenylalanate; 1-methyl N-L-α-aspartyl-L-phenylalanate; 3-Amino-N-(alpha-carboxyphenethyl)succinamic acid N-methyl ester; 3-Amino-N-(alpha-methoxycarbonylphenethyl) succinamic acid; 3-Amino-N-(α-carboxyphenethyl)succinamic acid N-methyl ester; 3-Amino-N-(α-methoxycarbonylphenethyl) succinamic acid; Asp-phe-ome; Aspartam; Aspartame; Aspartamo; Aspartamum; Aspartylphenylalanine methyl ester; L-Aspartyl-L-phenylalanine methyl ester

> <INTERNATIONAL_BRANDS>
Aminosweet; Canderel; Equal; Nutrasweet

$$$$

  Mrv0541 04191212102D          

 30 32  0  0  1  0            999 V2000
   -1.0890    1.2765    0.0000 C   0  0  0  0  0  0  0  0  0  0  0  0
   -1.0890   -0.3735    0.0000 C   0  0  0  0  0  0  0  0  0  0  0  0
    0.4101   -0.2159    0.0000 C   0  0  0  0  0  0  0  0  0  0  0  0
    0.8950    0.4515    0.0000 C   0  0  0  0  0  0  0  0  0  0  0  0
   -1.8035    0.8640    0.0000 C   0  0  0  0  0  0  0  0  0  0  0  0
   -1.0890   -1.1985    0.0000 C   0  0  0  0  0  0  0  0  0  0  0  0
   -1.8035    0.0390    0.0000 C   0  0  0  0  0  0  0  0  0  0  0  0
   -1.8035   -1.6110    0.0000 C   0  0  0  0  0  0  0  0  0  0  0  0
   -1.8035   -2.4360    0.0000 C   0  0  0  0  0  0  0  0  0  0  0  0
   -1.0890   -2.8485    0.0000 C   0  0  0  0  0  0  0  0  0  0  0  0
   -2.5179   -2.8485    0.0000 C   0  0  0  0  0  0  0  0  0  0  0  0
   -1.0890   -3.6735    0.0000 C   0  0  0  0  0  0  0  0  0  0  0  0
   -0.3745   -2.4360    0.0000 C   0  0  0  0  0  0  0  0  0  0  0  0
   -2.5179   -3.6735    0.0000 C   0  0  2  0  0  0  0  0  0  0  0  0
   -1.8035   -4.0860    0.0000 C   0  0  0  0  0  0  0  0  0  0  0  0
   -3.2324   -4.0860    0.0000 O   0  0  0  0  0  0  0  0  0  0  0  0
   -0.3044    2.3565    0.0000 C   0  0  0  0  0  0  0  0  0  0  0  0
    0.4101    1.9440    0.0000 C   0  0  2  0  0  0  0  0  0  0  0  0
    1.1246    2.3565    0.0000 C   0  0  0  0  0  0  0  0  0  0  0  0
    1.8390    1.9440    0.0000 C   0  0  0  0  0  0  0  0  0  0  0  0
    3.9825    2.3565    0.0000 C   0  0  0  0  0  0  0  0  0  0  0  0
    3.2680    1.9440    0.0000 C   0  0  0  0  0  0  0  0  0  0  0  0
    3.2680    1.1190    0.0000 C   0  0  0  0  0  0  0  0  0  0  0  0
    2.5535    2.3565    0.0000 C   0  0  0  0  0  0  0  0  0  0  0  0
    0.4101    1.1190    0.0000 C   0  0  2  0  0  0  0  0  0  0  0  0
    1.1246    1.5315    0.0000 H   0  0  0  0  0  0  0  0  0  0  0  0
   -0.3745    0.0390    0.0000 C   0  0  2  0  0  0  0  0  0  0  0  0
   -0.3745   -0.7860    0.0000 H   0  0  0  0  0  0  0  0  0  0  0  0
   -0.3745    0.8640    0.0000 C   0  0  2  0  0  0  0  0  0  0  0  0
   -0.3745    1.6890    0.0000 C   0  0  0  0  0  0  0  0  0  0  0  0
 27 29  1  0  0  0  0
 29 25  1  0  0  0  0
 29  1  1  0  0  0  0
 27  2  1  0  0  0  0
 27  3  1  0  0  0  0
 25  4  1  0  0  0  0
  1  5  1  0  0  0  0
  2  6  2  0  0  0  0
  2  7  1  0  0  0  0
  6  8  1  0  0  0  0
  8  9  2  0  0  0  0
  9 10  1  0  0  0  0
  9 11  1  0  0  0  0
 10 12  1  0  0  0  0
 10 13  2  0  0  0  0
 11 14  1  0  0  0  0
 12 15  1  0  0  0  0
 14 16  1  6  0  0  0
  3  4  1  0  0  0  0
  5  7  1  0  0  0  0
 14 15  1  0  0  0  0
 25 18  1  0  0  0  0
 18 17  1  6  0  0  0
 18 19  1  0  0  0  0
 19 20  1  0  0  0  0
 20 24  1  0  0  0  0
 24 22  1  0  0  0  0
 22 21  1  0  0  0  0
 22 23  1  0  0  0  0
 25 26  1  6  0  0  0
 27 28  1  6  0  0  0
 29 30  1  1  0  0  0
M  END
> <DATABASE_ID>
DB00169

> <DATABASE_NAME>
drugbank

> <SMILES>
CC(C)CCC[C@@H](C)[C@@]1([H])CC[C@@]2([H])\C(CCC[C@]12C)=C\C=C1\C[C@@H](O)CCC1=C

> <INCHI_IDENTIFIER>
InChI=1S/C27H44O/c1-19(2)8-6-9-21(4)25-15-16-26-22(10-7-17-27(25,26)5)12-13-23-18-24(28)14-11-20(23)3/h12-13,19,21,24-26,28H,3,6-11,14-18H2,1-2,4-5H3/b22-12+,23-13-/t21-,24+,25-,26+,27-/m1/s1

> <INCHI_KEY>
QYSXJUFSXHHAJI-YRZJJWOYSA-N

> <FORMULA>
C27H44O

> <MOLECULAR_WEIGHT>
384.6377

> <EXACT_MASS>
384.33921603

> <JCHEM_ACCEPTOR_COUNT>
1

> <JCHEM_AVERAGE_POLARIZABILITY>
49.600072009805885

> <JCHEM_BIOAVAILABILITY>
1

> <JCHEM_DONOR_COUNT>
1

> <JCHEM_FORMAL_CHARGE>
0

> <JCHEM_GHOSE_FILTER>
0

> <JCHEM_IUPAC>
(1S,3Z)-3-{2-[(1R,3aS,4E,7aR)-7a-methyl-1-[(2R)-6-methylheptan-2-yl]-octahydro-1H-inden-4-ylidene]ethylidene}-4-methylidenecyclohexan-1-ol

> <ALOGPS_LOGP>
7.98

> <JCHEM_LOGP>
7.125460754666667

> <ALOGPS_LOGS>
-6.01

> <JCHEM_MDDR_LIKE_RULE>
1

> <JCHEM_NUMBER_OF_RINGS>
3

> <JCHEM_PHYSIOLOGICAL_CHARGE>
0

> <JCHEM_PKA_STRONGEST_ACIDIC>
18.384341369959035

> <JCHEM_PKA_STRONGEST_BASIC>
-1.3184890847799178

> <JCHEM_POLAR_SURFACE_AREA>
20.23

> <JCHEM_REFRACTIVITY>
123.22449999999996

> <JCHEM_ROTATABLE_BOND_COUNT>
6

> <JCHEM_RULE_OF_FIVE>
0

> <ALOGPS_SOLUBILITY>
3.80e-04 g/l

> <JCHEM_TRADITIONAL_IUPAC>
vitamin D3

> <JCHEM_VEBER_RULE>
1

> <DRUGBANK_ID>
DB00169

> <SECONDARY_ACCESSION_NUMBERS>
NUTR00008; APRD00506

> <DRUG_GROUPS>
approved; nutraceutical

> <GENERIC_NAME>
Cholecalciferol

> <SYNONYMS>
(+)-vitamin D3; (3β,5Z,7E)-9,10-secocholesta-5,7,10(19)-trien-3-ol; (5Z,7E)-(3S)-9,10-secocholesta-5,7,10(19)-trien-3-ol; Activated 7-dehydrocholesterol; Calciol; CC; Cholecalciferol; Cholecalciferolum; Colecalciferol; Colecalciferolum; Oleovitamin D3; Vitamin D-3; Vitamin D3

> <PRODUCTS>
24 Multivitamins + Minerals; 50 Plus Multiple Vitamins & Minerals; A + D Ointment; A.R.T.H. Away Formula; Aces Tab; Acti-cal/mag 2:1 + Zinc and D Caplet; Actical Plus Calcium-magnesium-vitamin D3-silicon Chewable; Active Calcium Plus Magnesium, Vitamin D and Silicon; Active FE; Active OB; Actonel Sachet Kit; Adrovance; Adult Formula 50+; Adult Infuvite Multiple Vitamins; Advanced AM PM; Ag-vitamin D; Alendronate-cholecalciferol; Am Caps; Amerix Multivitamin; Amerix Vitamin D 3; Animal Shapes; Animal Shapes w/Iron Chewtabs; Animi-3; Animi-3 with Vitamin D; Antiseptic Skin Cream; Apcal; Apo-alendronate/vitamin D3; Avon Nutrivance Soft Calcium Chews With Vitamin D; Avon Vitadvance Multi-kids Complete; AxiFol; AzesChew; Azesco; B & J Formula Dietary Supplement; Bal-Care DHA; Bal-Care DHA Essential; Bear Essentials; Beta Carotene Provitamin A With D; Body Rox; Bseltzer; C-Nate DHA; C. Vit-min Formula; C.H.V. Formula; Cal-mag Citrate Zinc & Vitamin D Tablets; Cal-mag Complete With Zinc, C and D; Cal-mag With Zinc & Vitamin D; Cal/mag 1:1 With Zinc and Vitamin D - Tablet; Calci-yum Plus Magnesium + D3; Calcium & Magnesium Citrate Plus D With Manganese, Potassium & Zinc; Calcium & Magnesium With Potassium, Zinc, Manganese & Vitamin D; Calcium & Vitamin D; Calcium 250 Mg With Vitamin D; Calcium 500mg With Vitamin D; Calcium 600 + D; Calcium 600mg + Vit D3 125unit Tab; Calcium 650mg With Vitamin D; Calcium Citrate With Vitamin D; Calcium Citrate and Vitamin D 200mg/160iu; Calcium Complex High Grade; Calcium Et Magnesium Plus Vitamin D; Calcium Folic Acid Plus D Chewable; Calcium Plus; Calcium Supplement Tab; Calcium With Magnesium and Vitamin D; Calcium With Mg Zn Mn Cu CR Si and Vit. C & D; Calcium With Vitamin D 200 Mg/160 Iu; Calcium and Magnesium 1:1 Plus Tablets; Calcium and Magnesium Citrate and Vitamin D 250mg/125mg/200iu; Calcium and Magnesium With Vitamin D; Calcium-magnesium With K & Zn and Vitamin D3; Calcium/magnesium/vitamin D - Capsule; Calma-D; Calplus; Caltrate 600 Plus D - Tablet; Cataplex D Tab 400unit; Cavan Alpha; Cavan Folate DHA; Cavan Folate OB; Cavan Heme OB; Cavan One; Cavan Prenatal; Cavan-EC SOD DHA; Central-vite 18 Essential; Chela Calmag-100 Plus Zinc D3; Chela Calmag-300 Plus Zinc D3; Chewable Children's Complete Multivitamins With Essential Minerals; Chewable Multivitamins; Chewable Multivitamins Plus Iron; Children Choice Multivit Chewable Tab; Children Choice Multivitamin W Iron Chew Tab; Children Vitamin Drops; Children's Chewable Multi-vitamin; Children's Chewable Multi-vitamin Complete With Minerals; Children's Chewable Multiple Vit.plus Iron; Children's Chewable Multiple Vitamins - Tab; Children's Chewable Multivitamin Complete With Minerals; Children's Chewable Multivitamins With Minerals; Children's Chewable Multivitamins and Minerals; Children's Chewable Vit and Min Tab; Children's Multivitamins With Iron; Children's Vitamins Chewable; Children's Vitamins W Iron Chewable; Childrens Chewable Vitamin Tab; Childrens Chewable Vitamins; Choice OB DHA; Cholecal DF; Ciferex; Cifrazol; CitraNatal Assure; CitraNatal B-Calm; CitraNatal Essence; CitraNatal Harmony; CitraNatal Harmony 3.0; CitraNatal Medley; Citranatal B-calm; Citrate De Calcium Plus Vitamine D Et Zinc; Cod Liver Oil Oleovitamin A & D Caps 20min; Cod Liver Oil USP; Complete Multivitamins and Minerals for Children; Complete Natal DHA; Complete-RF Prenatal; CompleteNate Chewable; Coral Calcium Plus Vitamin D 210mg/100iu; Corvita; Corvite; Corvite FE; Corvite Free; CyFolex; D Vi Sol Infants Drops 400unit/0.6ml; D-Cal SoyCal; D-tabs 10000unit; Daily-Vite; Decalcitrol; Decara High Potency Vitamin D3 Vegicaps; Decara Vitamin D; Derma-force; Dexivite; Dialyvite Supreme D; Dry Super Vitamin A Plus D - Cap; Duet DHA; Duet DHA 400; Duet DHA 400 ec; Duet DHA Balanced; DuetDHA Balanced; DuetDHA Complete; Durachol; Dyzbac; Edge OB; Efferlife Calcium 500mg + Vitamin D3 440 Iu + Vitamin C 125mg; Efferlife Multivitamins and Minerals; Enrich Core Pack - Children Vitamin and Mineral Supplement; Envirocomplex; Enviroflex - Tab; Escavite; Escavite D; Escavite Lq; Essential Vitamins and Minerals; Euro D 10 000; Euro-D 10000 Iu; Euro-D 5000 Iu; Euro-D 50000 Iu; Extra Once A Day; Extra P.N. Vitamin-mineral Drink Mix; Extra-Virt Plus DHA; Floriva; Floriva Plus; Focalgin 90 DHA; Focalgin CA; Folcal DHA; Folcaps Care One; Folcaps Omega-3; Folene; Folet DHA; Folet One; Folgard; Folika-D; Folika-MG; Folika-V; Folivane-PRx DHA; Folplex; Foltabs Prenatal; Foltabs Prenatal Plus DHA; Folvik-D; Folvite-D; For Kids Only Chewable Multivit. Plus Iron; For Kids Only Chewable Multivitamins; For Kids Only Chewable Multivitamins - Tab; For-2; Formula 3200 Waf 100unit; Formula O-care Vitamin and Mineral Supplement; Formula Osg; Fortamines 10 Capsules; Fortamines-10 Comprimes; Forty Plus Vitamin Supplement; Fosamax Plus D; Fosavance; Fosteum; G.A.S. Complex; Garfield Chewable Multivitamins Tab; Garfield Chewable Multivits Plus Iron Tab; Genicin Vita-D; Genicin Vita-Q; Gestamine Comprimes; Gesticare DHA; Grand Master Formula Tab; HemeNatal OB; HemeNatal OB plus DHA; Hi Potency Multi Tab; High Potency Calcium; High Potency Multivitamins & Minerals Caplets; Hormodausse Plus Calc Et D Tab; Hvp Chelated Cal/mag With Zinc and Vitamins C and D; INATAL Ultra; Inatal Advance; Infant Multivitamin Drops; Infants' Multiple Vitamin Drops; Infuvite Adult Multiple Vitamins; Innersource Tab; Iprical; Iron Polysaccharides Folic Acid DHA; Isotonix Calcium Plus Formula; Isotonix Multitech Vitamin Mineral Supplemen; Jamp-vitamin D; Jenliva; Junior Multi Vitamins - Regular; K.L. Vitamin-mineral; Kid's Choice Children's Chewable Vitamins - Tab; Kids Stuff Tablets; Kids Stuff With Iron Tablets; Kimchi Vitamin chewable multivitamin; L-Methyl PNV DHA; L.C. Supplement; L.I.P. Complex; Leonas Calcium Plus Vitamin D3; Lexazin; Liqui Cal-D; Liquid Cal/mag Plus D; Liquid Calcium Mg Phosphorus and Vit.d-3; Liquid Calcium With Vitamin D; Liquid Calcium and Magnesium With Vit.d; Liquid Opti-minplex +d; Luxa-D; Magnacal; Maintain Multiple Vitamin & Minerals; Marnatal F; Materna; Materna - Tab; Materna-tab; Maximum Once A Day; Mebolex; Mebolic; Medi-10; Mega Vitaminerals; Men's; Men's 50+; Men's Biomultiple Vitamin and Mineral Supplement; Men's Multi Master Formula; Menocal Tab; Mid-life Magnacal 2; Milk Calcium With Vitamins C, D, and Phosphorous; Milltrium Senior Vitamin and Mineral Supplement; Moms Choice Rx; Mor-vites Tab; Multi #2; Multi - N.T.O.x Formula - Tab; Multi Mega Minerals With Vitamin D; Multi Tabs; Multi Vitamin & Minerals; Multi Vitamin - Mineral; Multi Vitamin Drops with Fluoride; Multi Vitamin Drops with Fluoride and Iron; Multi Vitamin Drops with Fluoride with Iron; Multi Vitamin Plus Iron; Multi Vitamin and Fluoride; Multi Vitamin with Fluoride; Multi Vitamin, Iron and Fluoride; Multi Vitamins & Minerals; Multi-Nate 30; Multi-Vit with Fluoride; Multi-Vit with Fluoride and Iron; Multi-Vitamin Drops with Fluoride and Iron; Multi-Vitamin Fluoride; Multi-Vitamin Fluoride Drops; Multi-Vitamin Fluoride and Iron Drops; Multi-Vitamin With Fluoride; Multi-Vitamin with Fluoride; Multi-actin; Multi-kid; Multi-phyto Capsules; Multi-vitamin Dietary Supplement; Multi-vitamins; Multi-vitamins With Minerals; MultiVitamin Drops with Fluoride and Iron; MultiVitamin with Fluoride; MultiVitamin with Fluoride Chewable; MultiVitamin with Fluoride Drops; MultiVitamin, Iron and Fluoride Drops; Multicaps; Multinate DHA; Multinate DHA Extra; Multiple Vitamins; Multiple Vitamins & Minerals Tablets; Multitabs; Multivit with Fluoride; Multivitamin; Multivitamin & Minerals (iron Free); Multivitamin & Multimineral; Multivitamin Drops with Fluoride; Multivitamin with Fluoride; Multivitamines Et Mineraux Junior Regulier; Multivitamines Et Mineraux Reguliers / Regular Multivitamins and Minerals; Multivitamines Plus Fer Pour Enfants (chewable Tablets); Multivitamines Pour Enfants (chewable Tablets); Multivitamins; Multivitamins and Minerals - Complete; Multivitamins and Minerals Tablets; Multivitamins and Minerals With Betacarotene Tablets; Multivitamins and Minerals for Men; Multivitamins and Minerals for Women; Multivitamins and Minerals for Young Men; Multivitamins and Minerals for Young Women; Multivitamins and Multiminerals Formula Regular Tablet; Multivitamins for Children; Multra Plex; Multra With Iron; Mvc; N.E.U. Complex; NEONATAL Complete; NESTABS ABC Prenatal Multi-vitamin/Mineral Supplement with DHA/EPA; NESTABS DHA Prenatal Multi-vitamin/Mineral Supplement with DHA/EPA; NESTABS Prenatal Multi-vitamin/Mineral Supplement; Nata Komplete; NataChew; NataFort; Natalvirt 90dha; Natalvirt Ca; Natavite; Natural Source Spectrum With Beta Carotene; Neo-vites & Minerals Tab; Neomultivite; Neonatal DHA; Neonatal Plus Vitamin; Neonatal Vitamin; Nephrocaps-QT; Nestabs ONE; Nexa Plus; Nexa Select; Nexa Select Rx Prenatal Vitamin with Plant-Based DHA; Niva-Plus; NovaDHA Baby DHA; NovaFerrum 125; Noxifol-D; Nrg Plus Liq; NuFera; Numark Multivitamins; Nutra Boost; Nutri-Tab OB; Nutri-Tab OB plus DHA; Nutri-chem Calcium Magnesium With D and Zinc; Nutrifer Plus Tablets; Nutrilite Double X; O Calcium 500mg Plus D Tab; O-Cal FA multivitamin; O-Cal Prenatal Vitamin; O-calcium 250mg Plus D; OB Complete 400; OB Complete DHA; OB Complete Gold; OB Complete Petite; OB Complete Prenatal; Omniquin; Omnivex; Oncovite; One A Day Bone Builder; One Daily Vitamin and Mineral Dietary Supplement; One Per Day Vitamin and Mineral Dietary Supplement; Only One - Tablet; Onyx; Opti-cal Chewable +d Caplet; Orifer F; Ortho Folic; Osteo Factors; Osteo Formula; Osteo Formula Tab; Osteo Regime; Osteo Tablets; Osteo-force; Osteo-life; Osteo-plus; Osteoshield; Oyster Shell Calcium; Oyster Shell Calcium with Vitamin D; P.N.P. Vitamin Drink; P.R.O. Complex; PM Caps; PNV Ferrous Fumarate Docusate Folic Acid; PNV Prenatal Plus Multivitamin; PNV Prenatal Vitamin; PNV Prenatal Vitamin Plus Vitamin A; PNV Tabs 29-1; PNV-First; PNV-Omega; PNV-Select; PR Natal 400; PR Natal 400 ec; PR Natal 430; PR Natal 430 ec; PRENATE Enhance; PRENATE Restore; Palm Springs Multvit and Min Tab; Paramettes Chewable Multivitamins Plus Iron; Paramettes Chewable Multivits With Iron Tab; Paramettes Multivits Plus Iron Tab (teens); Pediatric Infuvite Multiple Vitamins; Pediatric Infuvite Multiple Vitamins for Infusion; Ply Vi Sol Chewable Tab; Pnv Ob DHA; Pnv-OB-dha; Pnv-dha; Poly-Vi-Flor; Poly-Vi-Flor with Iron; Poly-Vitamin with Fluoride; Port A Mins Super Cal-mag 300/150 With Vitamin D3; Port A Mins Super Calcium 375 With Vitamin D3; Port A Mins Super Calcium 750 With Vitamin D3; PramLyte; Pre-Tabs DHA Prenatal Multi-vitamin/Mineral Supplement with DHA/EPA; PreFol-DHA; PreGen DHA; PreGenna; PreNatal 19; PreNatal Vitamins Plus; PreNexa; PreNexa premier; PrePLUS; PreQue 10; PreTAB; Prefera OB plus DHA; PreferaOB; PreferaOB ONE; PreferaOB One; PreferaOB plus DHA; Pregvit; Pregvit Folic 4; Pregvit Folic 5; Premium Prenatal; Premium Prenatal - Tablets; Prena1; Prena1 Chew; Prena1 Plus; Prenaissance; Prenaissance Plus; Prenatabs FA; Prenatal; Prenatal Formula Tab; Prenatal Plus; Prenatal Plus Iron; Prenatal Plus Multivitamin Plus DHA MiniCaps; Prenatal Supplement - Tab; Prenatal Vi-min; Prenatal Vitamin No 53 Iron Fum Folic Acid Docusate CA DHA; Prenatal Vitamins Plus; Prenatal Vitamins Plus Low Iron; Prenatal Vitamins and Minerals Tablets; Prenatal and Post Partum Supplement; Prenatal, DHA; Prenate Chewable; Prenate DHA; Prenate Elite; Prenate Essential; Prenate Mini; Prenate Pixie; Prenate Star; Prenatrix; Prenatryl; Prenatvite; Prenatvite Complete; Prenatvite Plus; Preplus; Prevital Tab; PrimaCare; Pro Hers Vanilla; Pro His Mint; Pro Pcos Citrus; Puralor; Pure Calcium calcium; Q.T. #4 Vitamin and Mineral Dietary Supplement; Q.T. Vitamin and Mineral Drink Mix; Quflora FE; Quflora FE Pediatric Drops; Quflora Gummies; Quflora Pediatric; Quflora Pediatric Drops; RE FAC-x; RE Nata; RE Nata OB; RE Prenatal Multivitamin with Iron; Re Ob 90 DHA; Recal D; RediChew; Redoxon-cal; Relnate DHA; Renate; Renate DHA; Revesta; Riva-D; Riva-D 10000 Iu; Riva-D 5000 Iu; Riva-D 50000 Iu; Roxifol-D; Rulavite DHA; Sandoz Alendronate/cholecalciferol; Sandoz D 10 000; Se-Care Chewable; Se-Natal 19; Se-Natal 19 Chewable; Se-Natal One; Se-Plete DHA; Select OB; Select-OB Plus DHA Prenatal Supplement Plus DHA; Senior Multi One; SetonET; SetonET-EC; Silexin; Sincera - Tablets; Sodium Fluoride and Vitamin D Drops; Spectrum Performa Multivitamins and Minerals Tablets; Strovite One Caplets; Sun-rype Vitaburst; Super Cal Mag Plus; Super Charged Energy; Super Kids Chewable Multivitamin Multimineral (chewable Tablets); Super Multi; Super Vita-vim With Beta-carotene - Tab; Super-pote Vitamin Supplement; Supplement De Vitamines Et Mineraux; Supplements De Vitamines Et Mineraux; Sweet Sixteen - Tab; Swical Extra-fort; Swiss One Multivitamin and Mineral Caplet; T-PA Cap; T.A. Vit A & D Ointment; TL-Care DHA; TL-Folate; TL-Select; TL-Select DHA; Taron BC; Taron-prex Prenatal; Tendera-OB; Teva-alendronate/cholecalciferol; Thrivite 19; Thrivite Rx; Tobakient; Tozal; Tri Vi Flor Tab; Tri-VI-sol Drops; Tri-Vi-Flor; Tri-Vit With Fluoride And Iron Drops; Tri-Vit with Fluoride Drops; Tri-Vitamin with Fluoride; Tri-Vitamin with iron and fluoride; TriAdvance; TriStart DHA; TriStart ONE; Tricare Prenatal; Tricare Prenatal 2-part Daily Prenatal Vitamin System; Tricare Prenatal Compleat; Tricare Prenatal DHA One; Tricare Prenatal DHA One Rx Multivitamin; Tricare Prenatal DHA One With Folate; Tricare Prenatal Quick Dissolve; Trinatal GT; Trinatal Rx 1; Trinatal Ultra; Trinaz; Triple Vitamin Drops with Fluoride; Triple-Vitamin Drops with Fluoride; Triveen-Duo DHA; Triveen-PRx RNF; Ultimate OB DHA; UltimateCare ONE; UltimateCare ONE NF; Usana Calmag Plus Tablets - Tab; Usana Megavitamin Tablets - Tab; Usana Optimizer Actical Plus Calcium-magnesium-vitamin D3-silicon Tablets; V & M Vitamin and Mineral Supplement; V-Natal; VIL-Rx; VITAMINS A, C, D and FLUORIDE; VP CH Plus; VP CH Ultra; VP-HEME One; Vantavo; VemaVite-PRx 2 with Fish-Based DHA; Vena-Bal DHA; Vidextra; Vinacal; Vinate AZ; Vinate Care; Virt Nate; Virt Vite GT; Virt-Advance; Virt-Bal DHA Plus; Virt-Care One; Virt-Nate; Virt-Nate DHA; Virt-PN; Virt-PN DHA; Virt-PN Plus; Virt-Pn; Virt-Pn DHA; Virt-Select PRENATAL/POSTNATAL; Virt-Tabs; VirtPrex; Vita Balance 2000; Vita Day Tab; Vita-Rx Diabetic Vitamin; Vita-vim - Tab; Vita-vim With Beta-carotene - Tab; VitaPhil Aide; Vitaday Junior Tab; Vitafol; Vitafol Fe Plus; Vitafol Nano; Vitafol Ultra; Vital-D Rx; Vitamin & Mineral Formula 1 Dietary Supplement; Vitamin D; Vitamin D + Calcium Dietary Supplement; Vitamin D 1000iu; Vitamin D 400 Iu; Vitamin D 400 Iu Tablets; Vitamin D-dry 400 I.U.; Vitamin D3; Vitamin D3 Dietary Supplement; Vitamin D3-softgel Capsules; Vitamin D3-softgel Capsules 10000 Iu; Vitamine D 10 000; Vitamines A - D Calcium; Vitamins A, C, D and Fluoride Drops; Vitaphil 90 DHA; Vitaphil DHA; Vitrexate; Vitrexate FE; Vitrexyl; Vitrexyl plus Iron; Viva CT Prenatal; Viva Kids - Tab; Vol-Nate; Vol-Plus; Vol-Tab Rx; Vp-CH-pnv; Vp-gstn; Vp-heme Ob; Vp-heme Ob DHA; Vp-pnv-dha; Vtb Vitamin and Mineral Supplement; Vyqua; Wellness Formula; WesTab Plus; WestGel DHA; Women's Biomultiple Vitamin and Mineral Supplement; Women's Formula; Women's Support Tablets; Xyzbac; Xyzbac G; Xyzmune; Zalvit; Zatean-CH; Zatean-Pn; Zatean-Pn DHA; Zatean-Pn Plus; Zavara; Zavitrol; Zolate; Zyvit; algeaSAN pro; algeaSAN reg; healthy mamaBE WELL ROUNDED BE WELL ROUNDED; natelle COMPLETE; vitaMedMD One Rx; vitaMedMD Rx Plus

> <INTERNATIONAL_BRANDS>
Delta-D; Micro-D; Optimal-D; Vigantol

$$$$
170
  Mrv0541 02231214292D          

 13 14  0  0  0  0            999 V2000
    3.0786   -1.6498    0.0000 O   0  0  0  0  0  0  0  0  0  0  0  0
    3.0786    1.6498    0.0000 O   0  0  0  0  0  0  0  0  0  0  0  0
    3.7929   -0.4124    0.0000 C   0  0  0  0  0  0  0  0  0  0  0  0
    3.7929    0.4124    0.0000 C   0  0  0  0  0  0  0  0  0  0  0  0
    2.3641   -0.4124    0.0000 C   0  0  0  0  0  0  0  0  0  0  0  0
    3.0786   -0.8249    0.0000 C   0  0  0  0  0  0  0  0  0  0  0  0
    3.0786    0.8249    0.0000 C   0  0  0  0  0  0  0  0  0  0  0  0
    2.3641    0.4124    0.0000 C   0  0  0  0  0  0  0  0  0  0  0  0
    4.5303   -0.8535    0.0000 C   0  0  0  0  0  0  0  0  0  0  0  0
    4.5303    0.8535    0.0000 C   0  0  0  0  0  0  0  0  0  0  0  0
    1.6498   -0.8249    0.0000 C   0  0  0  0  0  0  0  0  0  0  0  0
    5.2777   -0.4296    0.0000 C   0  0  0  0  0  0  0  0  0  0  0  0
    5.2777    0.4296    0.0000 C   0  0  0  0  0  0  0  0  0  0  0  0
  1  6  2  0  0  0  0
  2  7  2  0  0  0  0
  3  4  1  0  0  0  0
  3  6  1  0  0  0  0
  3  9  2  0  0  0  0
  4  7  1  0  0  0  0
  4 10  2  0  0  0  0
  5  6  1  0  0  0  0
  5  8  2  0  0  0  0
  5 11  1  0  0  0  0
  7  8  1  0  0  0  0
  9 12  1  0  0  0  0
 10 13  1  0  0  0  0
 12 13  2  0  0  0  0
M  END
> <DATABASE_ID>
DB00170

> <DATABASE_NAME>
drugbank

> <SMILES>
CC1=CC(=O)C2=CC=CC=C2C1=O

> <INCHI_IDENTIFIER>
InChI=1S/C11H8O2/c1-7-6-10(12)8-4-2-3-5-9(8)11(7)13/h2-6H,1H3

> <INCHI_KEY>
MJVAVZPDRWSRRC-UHFFFAOYSA-N

> <FORMULA>
C11H8O2

> <MOLECULAR_WEIGHT>
172.18

> <EXACT_MASS>
172.0524295

> <JCHEM_ACCEPTOR_COUNT>
2

> <JCHEM_AVERAGE_POLARIZABILITY>
17.63715861491039

> <JCHEM_BIOAVAILABILITY>
1

> <JCHEM_DONOR_COUNT>
0

> <JCHEM_FORMAL_CHARGE>
0

> <JCHEM_GHOSE_FILTER>
1

> <JCHEM_IUPAC>
2-methyl-1,4-dihydronaphthalene-1,4-dione

> <ALOGPS_LOGP>
1.91

> <JCHEM_LOGP>
1.88986844

> <ALOGPS_LOGS>
-2.53

> <JCHEM_MDDR_LIKE_RULE>
0

> <JCHEM_NUMBER_OF_RINGS>
2

> <JCHEM_PHYSIOLOGICAL_CHARGE>
0

> <JCHEM_PKA_STRONGEST_ACIDIC>
12.936644003276722

> <JCHEM_PKA_STRONGEST_BASIC>
-7.157932075900291

> <JCHEM_POLAR_SURFACE_AREA>
34.14

> <JCHEM_REFRACTIVITY>
50.5403

> <JCHEM_ROTATABLE_BOND_COUNT>
0

> <JCHEM_RULE_OF_FIVE>
1

> <ALOGPS_SOLUBILITY>
5.04e-01 g/l

> <JCHEM_TRADITIONAL_IUPAC>
menadione

> <JCHEM_VEBER_RULE>
1

> <DRUGBANK_ID>
DB00170

> <SECONDARY_ACCESSION_NUMBERS>
NUTR00062

> <DRUG_GROUPS>
approved; nutraceutical

> <GENERIC_NAME>
Menadione

> <SYNONYMS>
2-Methyl-1,4-Naphthalenedione; 2-Methyl-1,4-naphthochinon; 2-Methyl-1,4-naphthoquinone; Vitamin K 3; Vitamin K3

> <INTERNATIONAL_BRANDS>
Synkavite

$$$$

  Mrv1909 07102021182D          

 35 37  0  0  1  0            999 V2000
   -0.5683   -1.4940    0.0000 C   0  0  0  0  0  0  0  0  0  0  0  0
    3.3523    1.1104    0.0000 C   0  0  0  0  0  0  0  0  0  0  0  0
    0.6538    1.5229    0.0000 C   0  0  0  0  0  0  0  0  0  0  0  0
    0.0992   -1.0091    0.0000 C   0  0  2  0  0  0  0  0  0  0  0  0
    1.9233    1.9354    0.0000 C   0  0  0  0  0  0  0  0  0  0  0  0
    0.8838   -1.2640    0.0000 C   0  0  2  0  0  0  0  0  0  0  0  0
    1.3687   -0.5966    0.0000 C   0  0  2  0  0  0  0  0  0  0  0  0
    2.6378    2.3479    0.0000 C   0  0  0  0  0  0  0  0  0  0  0  0
    1.9233    1.1104    0.0000 C   0  0  0  0  0  0  0  0  0  0  0  0
    0.8838    0.0709    0.0000 C   0  0  2  0  0  0  0  0  0  0  0  0
    2.6378    3.1729    0.0000 N   0  0  0  0  0  0  0  0  0  0  0  0
    3.3523    1.9354    0.0000 N   0  0  0  0  0  0  0  0  0  0  0  0
    2.6378    0.6979    0.0000 N   0  0  0  0  0  0  0  0  0  0  0  0
    1.1387    2.1904    0.0000 N   0  0  0  0  0  0  0  0  0  0  0  0
    1.1387    0.8555    0.0000 N   0  0  0  0  0  0  0  0  0  0  0  0
    1.1387   -2.0486    0.0000 O   0  0  0  0  0  0  0  0  0  0  0  0
    2.1937   -0.5966    0.0000 O   0  0  0  0  0  0  0  0  0  0  0  0
   -5.4991   -2.4270    0.0000 O   0  0  0  0  0  0  0  0  0  0  0  0
   -5.3165   -1.2746    0.0000 O   0  0  0  0  0  0  0  0  0  0  0  0
   -4.3467   -2.6095    0.0000 O   0  0  0  0  0  0  0  0  0  0  0  0
   -2.4743   -0.9759    0.0000 O   0  0  0  0  0  0  0  0  0  0  0  0
   -1.5045   -2.3108    0.0000 O   0  0  0  0  0  0  0  0  0  0  0  0
   -3.0749   -1.0390    0.0000 O   0  0  0  0  0  0  0  0  0  0  0  0
   -3.7461   -2.5464    0.0000 O   0  0  0  0  0  0  0  0  0  0  0  0
   -1.3220   -1.1584    0.0000 O   0  0  0  0  0  0  0  0  0  0  0  0
    0.0992   -0.1841    0.0000 O   0  0  0  0  0  0  0  0  0  0  0  0
   -4.1642   -1.4572    0.0000 O   0  0  0  0  0  0  0  0  0  0  0  0
   -2.6568   -2.1283    0.0000 O   0  0  0  0  0  0  0  0  0  0  0  0
   -4.8316   -1.9421    0.0000 P   0  0  0  0  0  0  0  0  0  0  0  0
   -1.9894   -1.6433    0.0000 P   0  0  0  0  0  0  0  0  0  0  0  0
   -3.4105   -1.7927    0.0000 P   0  0  0  0  0  0  0  0  0  0  0  0
    0.2282   -1.8239    0.0000 H   0  0  0  0  0  0  0  0  0  0  0  0
    1.6986   -1.3931    0.0000 H   0  0  0  0  0  0  0  0  0  0  0  0
    1.7432    0.1385    0.0000 H   0  0  0  0  0  0  0  0  0  0  0  0
    0.3004    0.6542    0.0000 H   0  0  0  0  0  0  0  0  0  0  0  0
  4  1  1  1  0  0  0
  6  4  1  0  0  0  0
  6  7  1  0  0  0  0
  8  5  2  0  0  0  0
  9  5  1  0  0  0  0
  7 10  1  0  0  0  0
 11  8  1  0  0  0  0
 12  2  2  0  0  0  0
 12  8  1  0  0  0  0
 13  2  1  0  0  0  0
 13  9  2  0  0  0  0
 14  3  2  0  0  0  0
 14  5  1  0  0  0  0
 15  3  1  0  0  0  0
 15  9  1  0  0  0  0
 10 15  1  1  0  0  0
  6 16  1  6  0  0  0
  7 17  1  6  0  0  0
 25  1  1  0  0  0  0
  4 26  1  0  0  0  0
 10 26  1  0  0  0  0
 29 18  1  0  0  0  0
 29 19  1  0  0  0  0
 29 20  2  0  0  0  0
 29 27  1  0  0  0  0
 30 21  1  0  0  0  0
 30 22  2  0  0  0  0
 30 25  1  0  0  0  0
 30 28  1  0  0  0  0
 31 23  1  0  0  0  0
 31 24  2  0  0  0  0
 31 27  1  0  0  0  0
 31 28  1  0  0  0  0
  4 32  1  6  0  0  0
  6 33  1  1  0  0  0
  7 34  1  1  0  0  0
 10 35  1  6  0  0  0
M  END
> <DATABASE_ID>
DB00171

> <DATABASE_NAME>
drugbank

> <SMILES>
[H][C@]1(COP(O)(=O)OP(O)(=O)OP(O)(O)=O)O[C@@]([H])(N2C=NC3=C(N)N=CN=C23)[C@]([H])(O)[C@]1([H])O

> <INCHI_IDENTIFIER>
InChI=1S/C10H16N5O13P3/c11-8-5-9(13-2-12-8)15(3-14-5)10-7(17)6(16)4(26-10)1-25-30(21,22)28-31(23,24)27-29(18,19)20/h2-4,6-7,10,16-17H,1H2,(H,21,22)(H,23,24)(H2,11,12,13)(H2,18,19,20)/t4-,6-,7-,10-/m1/s1

> <INCHI_KEY>
ZKHQWZAMYRWXGA-KQYNXXCUSA-N

> <FORMULA>
C10H16N5O13P3

> <MOLECULAR_WEIGHT>
507.181

> <EXACT_MASS>
506.995745159

> <JCHEM_ACCEPTOR_COUNT>
14

> <JCHEM_ATOM_COUNT>
47

> <JCHEM_AVERAGE_NEUTRAL_MICROSPECIES_CHARGE>
-3.4233390069148704

> <JCHEM_AVERAGE_POLARIZABILITY>
39.06908554449487

> <JCHEM_BIOAVAILABILITY>
0

> <JCHEM_DONOR_COUNT>
7

> <JCHEM_FORMAL_CHARGE>
0

> <JCHEM_GHOSE_FILTER>
0

> <JCHEM_IUPAC>
({[({[(2R,3S,4R,5R)-5-(6-amino-9H-purin-9-yl)-3,4-dihydroxyoxolan-2-yl]methoxy}(hydroxy)phosphoryl)oxy](hydroxy)phosphoryl}oxy)phosphonic acid

> <ALOGPS_LOGP>
-0.84

> <JCHEM_LOGP>
-5.358933784798383

> <ALOGPS_LOGS>
-2.05

> <JCHEM_MDDR_LIKE_RULE>
1

> <JCHEM_NEUTRAL_CHARGE>
-3

> <JCHEM_NUMBER_OF_RINGS>
3

> <JCHEM_PHYSIOLOGICAL_CHARGE>
-4

> <JCHEM_PKA>
1.5478651363018323

> <JCHEM_PKA_STRONGEST_ACIDIC>
0.8996633965155931

> <JCHEM_PKA_STRONGEST_BASIC>
4.929998783114609

> <JCHEM_POLAR_SURFACE_AREA>
279.13

> <JCHEM_REFRACTIVITY>
95.81429999999997

> <JCHEM_ROTATABLE_BOND_COUNT>
8

> <JCHEM_RULE_OF_FIVE>
0

> <ALOGPS_SOLUBILITY>
4.49e+00 g/l

> <JCHEM_TRADITIONAL_IUPAC>
ethane

> <JCHEM_VEBER_RULE>
0

> <DRUGBANK_ID>
DB00171

> <SECONDARY_ACCESSION_NUMBERS>
NUTR00017; EXPT00007

> <DRUG_GROUPS>
investigational; nutraceutical

> <GENERIC_NAME>
ATP

> <SYNONYMS>
Adenosine 5'-triphosphate; Adenosine triphosphate; Adenosine-5'-triphosphate; ATP

> <INTERNATIONAL_BRANDS>
Atriphos; Striadyne

> <SALTS>
Adenosine triphosphate disodium; Adenosine triphosphate disodium trihydrate

$$$$

  Mrv1909 11291917072D          

  8  8  0  0  0  0            999 V2000
   -0.0316    0.1387    0.0000 C   0  0  1  0  0  0  0  0  0  0  0  0
   -0.2864    0.9233    0.0000 C   0  0  0  0  0  0  0  0  0  0  0  0
    0.7704   -0.1218    0.0000 C   0  0  0  0  0  0  0  0  0  0  0  0
   -0.6991   -0.3461    0.0000 N   0  0  0  0  0  0  0  0  0  0  0  0
   -1.1114    0.9233    0.0000 C   0  0  0  0  0  0  0  0  0  0  0  0
    0.9248   -0.9233    0.0000 O   0  0  0  0  0  0  0  0  0  0  0  0
    1.3663    0.4357    0.0000 O   0  0  0  0  0  0  0  0  0  0  0  0
   -1.3663    0.1386    0.0000 C   0  0  0  0  0  0  0  0  0  0  0  0
  1  2  1  0  0  0  0
  1  3  1  1  0  0  0
  1  4  1  0  0  0  0
  2  5  1  0  0  0  0
  3  6  1  0  0  0  0
  3  7  2  0  0  0  0
  4  8  1  0  0  0  0
  5  8  1  0  0  0  0
M  END
> <DATABASE_ID>
DB00172

> <DATABASE_NAME>
drugbank

> <SMILES>
OC(=O)[C@@H]1CCCN1

> <INCHI_IDENTIFIER>
InChI=1S/C5H9NO2/c7-5(8)4-2-1-3-6-4/h4,6H,1-3H2,(H,7,8)/t4-/m0/s1

> <INCHI_KEY>
ONIBWKKTOPOVIA-BYPYZUCNSA-N

> <FORMULA>
C5H9NO2

> <MOLECULAR_WEIGHT>
115.1305

> <EXACT_MASS>
115.063328537

> <JCHEM_ACCEPTOR_COUNT>
3

> <JCHEM_ATOM_COUNT>
17

> <JCHEM_AVERAGE_POLARIZABILITY>
11.50403298353395

> <JCHEM_BIOAVAILABILITY>
1

> <JCHEM_DONOR_COUNT>
2

> <JCHEM_FORMAL_CHARGE>
0

> <JCHEM_GHOSE_FILTER>
0

> <JCHEM_IUPAC>
(2S)-pyrrolidine-2-carboxylic acid

> <ALOGPS_LOGP>
-2.71

> <JCHEM_LOGP>
-2.568638276039985

> <ALOGPS_LOGS>
0.50

> <JCHEM_MDDR_LIKE_RULE>
0

> <JCHEM_NUMBER_OF_RINGS>
1

> <JCHEM_PHYSIOLOGICAL_CHARGE>
0

> <JCHEM_PKA_STRONGEST_ACIDIC>
1.9406707712827915

> <JCHEM_PKA_STRONGEST_BASIC>
11.332026115136207

> <JCHEM_POLAR_SURFACE_AREA>
49.33

> <JCHEM_REFRACTIVITY>
28.064299999999996

> <JCHEM_ROTATABLE_BOND_COUNT>
1

> <JCHEM_RULE_OF_FIVE>
1

> <ALOGPS_SOLUBILITY>
3.65e+02 g/l

> <JCHEM_TRADITIONAL_IUPAC>
palladium(2+) (4S,5S,14R,15R)-10-acetyl-4-(2-carboxyethyl)-15-ethyl-2-(2-methoxy-2-oxoethyl)-5,9,14,19-tetramethyl-20-[(2-sulfoethyl)carbamoyl]-21,22,23,24-tetraazapentacyclo[16.2.1.1^{3,6}.1^{8,11}.1^{13,16}]tetracosa-1,3(24),6,8,10,12,16(22),17,19-nonaene-21,23-diide

> <JCHEM_VEBER_RULE>
0

> <DRUGBANK_ID>
DB00172

> <SECONDARY_ACCESSION_NUMBERS>
NUTR00047

> <DRUG_GROUPS>
nutraceutical

> <GENERIC_NAME>
Proline

> <SYNONYMS>
(-)-2-Pyrrolidinecarboxylic acid; (−)-(S)-proline; (−)-2-pyrrolidinecarboxylic acid; (−)-proline; (2S)-pyrrolidine-2-carboxylic acid; (S)-2-Carboxypyrrolidine; (S)-2-Pyrrolidinecarboxylic acid; (S)-pyrrolidine-2-carboxylic acid; 2-Pyrrolidinecarboxylic acid; L-(−)-proline; L-alpha-pyrrolidinecarboxylic acid; L-Prolin; L-Prolina; L-Proline; L-pyrrolidine-2-carboxylic acid; L-α-pyrrolidinecarboxylic acid; P; Prolina; Proline; Prolinum

> <PRODUCTS>
2.5% Travasol Amino Acid Injection With Electrolytes In 10% Dextrose; 2.5% Travasol Amino Acid Injection With Electrolytes In 10% Dextrose Clinimix; 2.5% Travasol Amino Acid Injection Without Electrolytes In 10% Dextrose Quickmix; 2.5%travasol Amino Acid InJ.W.eleC.W.25%dex; 2.75% Travas. Amino Acid InJ.W.elecw.25%dex; 2.75% Travasol Amino Acid Injection With Electrolytes In 25% Dextrose Quickmix; 2.75% Travasol Amino Acid Injection With Electrolytes In 5% Dextrose Quickmix; 2.75%travasol Amino Acid InJ.W.eleC.W.5%dex.; 20% Prosol; 4.25% Amino Acid Injection Without Electrolytes In 20% Dextrose Quickmix; 4.25% Travasol Amino Acid Injection With Electrolytes In 10% Dextrose; 4.25% Travasol Amino Acid Injection With Electrolytes In 20% Dextrose; 4.25% Travasol Amino Acid Injection With Electrolytes In 20% Dextrose Quickmix; 4.25% Travasol Amino Acid Injection With Electrolytes In 25% Dextrose; 4.25% Travasol Amino Acid Injection With Electrolytes In 5% Dextrose Quickmix; 4.25% Travasol Amino Acid Injection Without Electrlytes In 10% Dextrose; 4.25% Travasol Amino Acid Injection Without Electrolytes In 20% Dextrose; 4.25% Travasol Amino Acid Injection Without Electrolytes In 25% Dextrose; 4.25% Travasol Amino Acid Without Electrolytes In 5% Dextrose Quickmix; 4.25%trav. Amino Acid InJ.W.O.elect.5%dext.; 4.25%travasol Amino Acid InJ.W.elecw.5%dex.; 5% Travasol Amino Acid Injection With Electrolytes In 20% Dextrose; 5% Travasol Amino Acid Injection Without Electrolytes In 20% Dextrose; 5% Travasol Amino Acid Injection Without Electrolytes In 25% Dextrose; 8.5% Freamine III; Aminosyn; Aminosyn 10% W Electrolytes; Aminosyn 3.5% M; Aminosyn 5%; Aminosyn 7%; Aminosyn 8.5%; Aminosyn 8.5% Injection With Electrolytes; Aminosyn HF; Aminosyn II; Aminosyn II 10% With Electrolytes; Aminosyn II 5% Inj; Aminosyn II 7% Injection; Aminosyn II 7% M In 10% Dextrose(dual Chamber); Aminosyn II 7% With 10% Dextrose; Aminosyn II 7% With 50% Dextrose; Aminosyn II 8.5% Injection; Aminosyn II 8.5% M In 20% Dextrose (dual Chamber); Aminosyn II 8.5% With 50% Dextrose; Aminosyn II In Dextrose Injection; Aminosyn II and Dextrose; Aminosyn II in Dextrose; Aminosyn II with Electrolytes; Aminosyn II with Electrolytes in Dextrose with Calcium; Aminosyn Sulfite Free; Aminosyn-PF; Aminosyn-PF 10%; Aminosyn-PF 7%; Clinimix; Clinimix 2.5% Travasol Aa Without Electrolytes In 10% Dextrose Injec; Clinimix E; Clinisol; FreAmine HBC; FreAmine III; HepatAmine; Hepatasol; Kabiven; Novamine; Nutrineal Pd4; Olimel 3.3% E; Olimel 4.4%; Olimel 4.4% E; Olimel 5.7%; Olimel 5.7% E; Olimel 7.6%; Olimel 7.6% E; Perikabiven; Periolimel 2.5% E; Plenamine; Premasol - sulfite-free (Amino Acid); Primene; Primene 10%; Primene 10%-liq IV; ProSol; ProcalAmine; Quick Mix 2.5% Travasol Aa With Electrolytes With 25% Dextrose Injec; RenAmin; Renamin (amino Acids) Injection; Smofkabiven; Smofkabiven Electrolyte Free; Smofkabiven Extra Nitrogen; Smofkabiven Extra Nitrogen Electrolyte Free; Smofkabiven Peripheral; Synthamin; Travasol; Travasol Amino Acid Inj 5.5%; Travasol Amino Acid Inj 8.5%; Travasol E; Travasol Inj Without Electrolytes 5.5%; Travasol Inj Without Electrolytes 8.5%; TrophAmine; Vamin 18 Electrolyte-free; Vamin N

$$$$
173
  Mrv0541 02231214292D          

 10 11  0  0  0  0            999 V2000
    3.8596    0.1235    0.0000 N   0  0  0  0  0  0  0  0  0  0  0  0
    3.8596   -1.2043    0.0000 N   0  0  0  0  0  0  0  0  0  0  0  0
    2.3645   -1.3654    0.0000 N   0  0  0  0  0  0  0  0  0  0  0  0
    1.6500   -0.1279    0.0000 N   0  0  0  0  0  0  0  0  0  0  0  0
    2.3645    1.1096    0.0000 N   0  0  0  0  0  0  0  0  0  0  0  0
    3.0790   -0.1279    0.0000 C   0  0  0  0  0  0  0  0  0  0  0  0
    3.0790   -0.9529    0.0000 C   0  0  0  0  0  0  0  0  0  0  0  0
    2.3645    0.2846    0.0000 C   0  0  0  0  0  0  0  0  0  0  0  0
    4.3411   -0.5404    0.0000 C   0  0  0  0  0  0  0  0  0  0  0  0
    1.6500   -0.9529    0.0000 C   0  0  0  0  0  0  0  0  0  0  0  0
  1  6  1  0  0  0  0
  1  9  1  0  0  0  0
  2  7  1  0  0  0  0
  2  9  2  0  0  0  0
  3  7  2  0  0  0  0
  3 10  1  0  0  0  0
  4  8  1  0  0  0  0
  4 10  2  0  0  0  0
  5  8  1  0  0  0  0
  6  7  1  0  0  0  0
  6  8  2  0  0  0  0
M  END
> <DATABASE_ID>
DB00173

> <DATABASE_NAME>
drugbank

> <SMILES>
NC1=C2NC=NC2=NC=N1

> <INCHI_IDENTIFIER>
InChI=1S/C5H5N5/c6-4-3-5(9-1-7-3)10-2-8-4/h1-2H,(H3,6,7,8,9,10)

> <INCHI_KEY>
GFFGJBXGBJISGV-UHFFFAOYSA-N

> <FORMULA>
C5H5N5

> <MOLECULAR_WEIGHT>
135.1267

> <EXACT_MASS>
135.054495185

> <JCHEM_ACCEPTOR_COUNT>
4

> <JCHEM_AVERAGE_POLARIZABILITY>
12.291219062634632

> <JCHEM_BIOAVAILABILITY>
1

> <JCHEM_DONOR_COUNT>
2

> <JCHEM_FORMAL_CHARGE>
0

> <JCHEM_GHOSE_FILTER>
0

> <JCHEM_IUPAC>
7H-purin-6-amine

> <ALOGPS_LOGP>
-0.38

> <JCHEM_LOGP>
-0.5734702306666666

> <ALOGPS_LOGS>
-1.07

> <JCHEM_MDDR_LIKE_RULE>
0

> <JCHEM_NUMBER_OF_RINGS>
2

> <JCHEM_PHYSIOLOGICAL_CHARGE>
0

> <JCHEM_PKA_STRONGEST_ACIDIC>
10.29344091776159

> <JCHEM_PKA_STRONGEST_BASIC>
5.320371483757757

> <JCHEM_POLAR_SURFACE_AREA>
80.48

> <JCHEM_REFRACTIVITY>
38.2195

> <JCHEM_ROTATABLE_BOND_COUNT>
0

> <JCHEM_RULE_OF_FIVE>
1

> <ALOGPS_SOLUBILITY>
1.15e+01 g/l

> <JCHEM_TRADITIONAL_IUPAC>
vitamin B4

> <JCHEM_VEBER_RULE>
0

> <DRUGBANK_ID>
DB00173

> <SECONDARY_ACCESSION_NUMBERS>
NUTR00012; EXPT00520

> <DRUG_GROUPS>
approved; nutraceutical

> <GENERIC_NAME>
Adenine

> <SYNONYMS>
6-Aminopurine; Adenin; Vitamin B4

> <PRODUCTS>
ADSOL Red Cell Preservation Solution System in Plastic Container (PL 146 Plastic); Additive Formula 3; Additive Solution Formula 3 As-3; Additive Solution Sodium Adenine Glucose Mannitol (sagm); Adsol Red Cell Preservation; Anticoagulant Cit Phos Dex Adenine Sol USP; As 3; CPD/ADSOL Red Cell Preservation Solution System (PL 2209); CPDA-1 Blood Collection System; Cpd Adenine Cpda 1; Cpd/adsol; Cpda-1; Haemonetics Additive Solution Formula 3 (AS-3); IMUFLEX WB-RP Blood Bag System with Integral Whole Blood Leukocyte Reduction Filter (Removing Platelets) with Diversion Blood Sampling Arm Anticoagulant Citrate Phosphate Dextrose (CPD) AND OPTISOL (AS-5) Red Cell Preservative; IMUFLEX WB-SP Blood Bag System with Integral Whole Blood Leukocyte Reduction Filter (Saving Platelets) with Diversion Blood Sampling Arm Anticoagulant Citrate Phosphate Dextrose (CPD) and OPTISOL (AS-5) Red Cell Preservative; Leucoflex CGP; Leukotrap; Leukotrap - AS-3 Solution; Leukotrap WB System; Leukotrap WB System - AS3; MTL1 Leucoflex; Nutricel Additive Solution - AS-3; Rejuvesol; Sag-M; Sag-mannitol Solution; TERUFLEX Blood Bag System Anticoagulant Citrate Phosphate Dextrose (CPD) AND OPTISOL Red Cell Preservative; TERUFLEX Blood Bag System Anticoagulant Citrate Phosphate Dextrose Adenine (CPDA-1); TERUFLEX Blood Bag System with Blood Sampling Arm Anticoagulant Citrate Phosphate Dextrose (CPD) AND OPTISOL (AS-5) Red Cell Preservative; TERUFLEX Blood Bag System with Diversion Blood Sampling Arm Anticoagulant Citrate Phosphate Dextrose (CPD) AND OPTISOL (AS-5) Red Cell Preservative

> <INTERNATIONAL_BRANDS>
Leuco-4

> <SALTS>
Adenine hydrochloride; Adenine sulfate

$$$$

  Mrv1909 09271918492D          

  9  8  0  0  0  0            999 V2000
    1.7863   -0.2062    0.0000 O   0  0  0  0  0  0  0  0  0  0  0  0
    1.0717    1.0313    0.0000 O   0  0  0  0  0  0  0  0  0  0  0  0
   -1.0718   -1.0313    0.0000 O   0  0  0  0  0  0  0  0  0  0  0  0
    0.3572   -1.0313    0.0000 N   0  0  0  0  0  0  0  0  0  0  0  0
   -1.7863    0.2061    0.0000 N   0  0  0  0  0  0  0  0  0  0  0  0
    0.3572   -0.2062    0.0000 C   0  0  1  0  0  0  0  0  0  0  0  0
   -0.3573    0.2061    0.0000 C   0  0  0  0  0  0  0  0  0  0  0  0
    1.0717    0.2061    0.0000 C   0  0  0  0  0  0  0  0  0  0  0  0
   -1.0718   -0.2062    0.0000 C   0  0  0  0  0  0  0  0  0  0  0  0
  1  8  1  0  0  0  0
  2  8  2  0  0  0  0
  3  9  2  0  0  0  0
  6  4  1  1  0  0  0
  5  9  1  0  0  0  0
  6  7  1  0  0  0  0
  6  8  1  0  0  0  0
  7  9  1  0  0  0  0
M  END
> <DATABASE_ID>
DB00174

> <DATABASE_NAME>
drugbank

> <SMILES>
N[C@@H](CC(N)=O)C(O)=O

> <INCHI_IDENTIFIER>
InChI=1S/C4H8N2O3/c5-2(4(8)9)1-3(6)7/h2H,1,5H2,(H2,6,7)(H,8,9)/t2-/m0/s1

> <INCHI_KEY>
DCXYFEDJOCDNAF-REOHCLBHSA-N

> <FORMULA>
C4H8N2O3

> <MOLECULAR_WEIGHT>
132.1179

> <EXACT_MASS>
132.053492132

> <JCHEM_ACCEPTOR_COUNT>
4

> <JCHEM_ATOM_COUNT>
17

> <JCHEM_AVERAGE_POLARIZABILITY>
11.677080187792834

> <JCHEM_BIOAVAILABILITY>
1

> <JCHEM_DONOR_COUNT>
3

> <JCHEM_FORMAL_CHARGE>
0

> <JCHEM_GHOSE_FILTER>
0

> <JCHEM_IUPAC>
(2S)-2-amino-3-carbamoylpropanoic acid

> <ALOGPS_LOGP>
-3.36

> <JCHEM_LOGP>
-4.287830841089268

> <ALOGPS_LOGS>
0.10

> <JCHEM_MDDR_LIKE_RULE>
0

> <JCHEM_NUMBER_OF_RINGS>
0

> <JCHEM_PHYSIOLOGICAL_CHARGE>
0

> <JCHEM_PKA>
16.09048069675879

> <JCHEM_PKA_STRONGEST_ACIDIC>
1.9985390993927763

> <JCHEM_PKA_STRONGEST_BASIC>
8.433487205020553

> <JCHEM_POLAR_SURFACE_AREA>
106.41

> <JCHEM_REFRACTIVITY>
28.354899999999997

> <JCHEM_ROTATABLE_BOND_COUNT>
3

> <JCHEM_RULE_OF_FIVE>
1

> <ALOGPS_SOLUBILITY>
1.68e+02 g/l

> <JCHEM_TRADITIONAL_IUPAC>
3-methyl-[1,2,4]triazino[3,4-a]phthalazin-4-one

> <JCHEM_VEBER_RULE>
0

> <DRUGBANK_ID>
DB00174

> <SECONDARY_ACCESSION_NUMBERS>
NUTR00015

> <DRUG_GROUPS>
approved; investigational; nutraceutical

> <GENERIC_NAME>
Asparagine

> <SYNONYMS>
(2S)-2-amino-3-carbamoylpropanoic acid; (2S)-2,4-diamino-4-oxobutanoic acid; (S)-2-amino-3-carbamoylpropanoic acid; (S)-Asparagine; 2-Aminosuccinamic acid; alpha-aminosuccinamic acid; Asn; Asparagine; Aspartamic acid; L-2-aminosuccinamic acid; L-Asparagine; L-aspartic acid beta-amide; L-aspartic acid β-amide; α-aminosuccinamic acid

$$$$
627
  Mrv0541 02231214492D          

  9  9  0  0  0  0            999 V2000
    3.0790    1.1880    0.0000 O   0  0  0  0  0  0  0  0  0  0  0  0
    1.6500    1.1880    0.0000 O   0  0  0  0  0  0  0  0  0  0  0  0
    1.6500   -1.2870    0.0000 N   0  0  0  0  0  0  0  0  0  0  0  0
    2.3644   -0.0495    0.0000 C   0  0  0  0  0  0  0  0  0  0  0  0
    3.0790   -0.4620    0.0000 C   0  0  0  0  0  0  0  0  0  0  0  0
    1.6500   -0.4620    0.0000 C   0  0  0  0  0  0  0  0  0  0  0  0
    3.0790   -1.2870    0.0000 C   0  0  0  0  0  0  0  0  0  0  0  0
    2.3644   -1.6995    0.0000 C   0  0  0  0  0  0  0  0  0  0  0  0
    2.3644    0.7755    0.0000 C   0  0  0  0  0  0  0  0  0  0  0  0
  1  9  1  0  0  0  0
  2  9  2  0  0  0  0
  3  6  1  0  0  0  0
  3  8  2  0  0  0  0
  4  5  1  0  0  0  0
  4  6  2  0  0  0  0
  4  9  1  0  0  0  0
  5  7  2  0  0  0  0
  7  8  1  0  0  0  0
M  END
> <DATABASE_ID>
DB00627

> <DATABASE_NAME>
drugbank

> <SMILES>
OC(=O)C1=CN=CC=C1

> <INCHI_IDENTIFIER>
InChI=1S/C6H5NO2/c8-6(9)5-2-1-3-7-4-5/h1-4H,(H,8,9)

> <INCHI_KEY>
PVNIIMVLHYAWGP-UHFFFAOYSA-N

> <FORMULA>
C6H5NO2

> <MOLECULAR_WEIGHT>
123.1094

> <EXACT_MASS>
123.032028409

> <JCHEM_ACCEPTOR_COUNT>
3

> <JCHEM_AVERAGE_POLARIZABILITY>
11.303434426527122

> <JCHEM_BIOAVAILABILITY>
1

> <JCHEM_DONOR_COUNT>
1

> <JCHEM_FORMAL_CHARGE>
0

> <JCHEM_GHOSE_FILTER>
0

> <JCHEM_IUPAC>
pyridine-3-carboxylic acid

> <ALOGPS_LOGP>
0.29

> <JCHEM_LOGP>
-0.16644564754087304

> <ALOGPS_LOGS>
-0.17

> <JCHEM_MDDR_LIKE_RULE>
0

> <JCHEM_NUMBER_OF_RINGS>
1

> <JCHEM_PHYSIOLOGICAL_CHARGE>
-1

> <JCHEM_PKA_STRONGEST_ACIDIC>
2.785610419861248

> <JCHEM_PKA_STRONGEST_BASIC>
4.193250855836253

> <JCHEM_POLAR_SURFACE_AREA>
50.19

> <JCHEM_REFRACTIVITY>
31.157299999999996

> <JCHEM_ROTATABLE_BOND_COUNT>
1

> <JCHEM_RULE_OF_FIVE>
1

> <ALOGPS_SOLUBILITY>
8.31e+01 g/l

> <JCHEM_TRADITIONAL_IUPAC>
niacin

> <JCHEM_VEBER_RULE>
0

> <DRUGBANK_ID>
DB00627

> <SECONDARY_ACCESSION_NUMBERS>
NUTR00042; APRD00536

> <DRUG_GROUPS>
approved; investigational; nutraceutical

> <GENERIC_NAME>
Niacin

> <SYNONYMS>
3-carboxypyridine; 3-Pyridinecarboxylic acid; 3-Pyridylcarboxylic acid; Acide nicotinique; ácido nicotínico; Acidum Nicotinicum; anti-pellagra vitamin; m-pyridinecarboxylic acid; Niacin; Niacina; Nicotinic acid; Nikotinsäure; pyridine-β-carboxylic acid; β-pyridinecarboxylic acid

> <PRODUCTS>
24 Multivitamins + Minerals; 50 Plus; Acti-niacin Caplet 500mg; Advicor; American Eagle Energizer Plus Vitamin Supplement Drink; American Plus Energy & Vitamin Drink; Animal Shapes; Antivert Tab; Armax; B 6 Plus; B-3 500mg Continuous Released; B-complex Tab; B3; B6 Plus Tab; Bev 29 Tab; Body Rox; C-B Complex; Cal M Tab; Cavan Heme OB; Cavan Prenatal; Cc II; Cda-21 Vitamins With Non-medicinal Probiotic Complex; Children's Chewable Tab; Chromemate; Complex 5 - Pwr; Concept DHA; Concept OB; Cool B; Daily-Vite; DermaNIC; Doctor's Choice Brand for Men; Dothelle DHA; Envirocomplex; Escavite D; Escavite Lq; Extra Once A Day; Flush Free Niacin With Inositol; Folika-T; Folivane-F; Folivane-OB; Folivane-Plus with Ascorbic Acid Precursors; Formula # 7 Tab 50mg; Formula Cp Cap; Formula Cw; Formula Cw-caplet; Formula F L W; Formula Hh; Formula Lf; Formula O.C.; Fortistress Tab; Fusion Activator Formula Tab; Genicin Vita-S; Gesticare DHA; Grand Master Formula Tab; Gtf Support Caplet; Gtf-vitamin-minerals & Pancreatin Tab; Harvest Of Values All B Complex Tab; Hemocyte Plus; Hi Potency B Complex W Chelated Minerals; Hsn Formula; Hyporyl - Tab; Ifb; Innersource Tab; Integra; Integra F; Integra Plus; Iron 25mg With Vit B-cmplx, Vit C, Cu & Mo; Iron, Vit & Min Supp; Irospan 24/6; JEUNCELL Hair restorer and Hair Growth Solution; Kindervites; Lip - Fac Formula; Lipall Plus Tab; Lipo-B-C Tab; Lipotropic Ctr; Lipovitan; Luna Vitamin and Mineral Bar for Women; Lustime Angel; Lustime Unicorn; Lutime; M-Natal Plus; MVC-Fluoride; Master Key Formula 3 Tab; Master Key Multi Vitamin Multi Mineral Formula 2; Maximum Once A Day; Mega 13 Multivitamin Formula; Mega Capsules; Mega Vitaminerals; Men's; Men's 50+; Metacinamide Tab; Mhb; Multi #2; Multi Tabs; Multi Vitamin-mineral Formula; Multi Vitamines - Liq; Multi-Vitamin; Multi-Vitamin Fluoride Drops; Multi-Vitamin Fluoride and Iron Drops; Multi-Vitamin With Fluoride; Multi-actin; Multi-force for Women Tab; Multi-phyto Capsules; Multicaps; Multitabs; Multivit with Fluoride; Multivitamin with Fluoride; Multivitamin with fluoride; Multivitamins and Minerals With Betacarotene Tablets; Multivitamins and Minerals for Young Men; Multivitamins and Minerals for Young Women; My Favorite Niacin and Inositol Tab; Myhephron Dialysis and Stress Supplement; NESTABS ABC Prenatal Multi-vitamin/Mineral Supplement with DHA/EPA; Nata Komplete; Natural Source Spectrum With Beta Carotene; Nephrocaps; Nephrocaps-QT; Ni-C-E-LE Plus; Niachrom Capsule; Niacin; Niacin 100 Mg Tablets; Niacin 100 mg; Niacin 100mg; Niacin 100mg Tab; Niacin 100mg Tablets USP; Niacin 250mg; Niacin 500 Mg and Inositol; Niacin 500mg; Niacin 50mg; Niacin Cap 250mg; Niacin Caps 100mg; Niacin Ctr Srt 500mg; Niacin Inj 100mg/ml; Niacin Pwr 800mg/1.25ml; Niacin Src 400mg; Niacin Tab 100mg; Niacin Tab 100mg USP; Niacin Tab 100mg Yeast Free; Niacin Tab 250mg; Niacin Tab 475mg; Niacin Tab 500mg; Niacin Tab 50mg; Niacin Tablets 500mg USP; Niacin-100 Tab 100mg; Niacin-niacinamide Tab; Niacor; Niaspan; Niaspan ER; Niaspan Fct; Nicaprin; Nicazyme; Niodan 500 Mg Time Release Tablets; NovaFerrum Multivitamin with Iron Pediatric Drops; NovaMV Multivitamin; Nutra Boost; O-Cal FA multivitamin; O-Cal Prenatal Vitamin; OB Complete 400; One A Day Advance Adults; One A Day Advance Adults 50+; One-A-day Advance Men's; Only One - Tablet; Orange Flavored Crystal Chews Tab; Phytopure; Phytovim Cap; Poly-Vi-Flor; Poly-Vi-Sol; PreNatal Vitamins Plus; Prenatal; Prenatal Formula Tab; Prenatal Mega Antioxidant; Prenatal Vitamins Plus Low Iron; Prenatal, DHA; Pro Enz Tab; Pro Hers Vanilla; Puralor; Reaphirm Plant Source DHA; Red American Eagle Vitamin Supplement Drink; Red Bull; Remedium - Liq Orl; Reno Caps; Revit Multi-vitamins and Minerals; Revitalize Multi-vitamin and Mineral Complex; Rogenic; Se-Natal; Select OB; Shen Min Vitamin Supplement; Simcor; Spectrum 2 Cap; Stress Formula Multi-B Comp + 500mg Vit C Cap; Strovite Forte Caplet; Super Daily No 2; Super Stress Mega B Plus 1000mg Vit C Tab; Sustained Release Niacin 500mg; Sveets; Swiss One Timed Release Tab; TL-Fluorivite; Taron-C DHA; Tendera-OB; Time Released Niacin 500 mg; Timed Release Vita-vim Srt; Tri B3 Src 300mg; TriStart DHA; TriStart ONE; Usana Megavitamin Tablets - Tab; VITAFOL Gummies; Vasodyn Tab; Vc II; Vege Swiss One Multivitamin W Chel Mins Tab; Virt-C DHA; Vita B Complex Tab; Vita Balance 2000; Vita Day Tab; Vita Vim Multivitamins and Minerals Tab; Vita Vim With Beta Carotene-caplet; Vita-Rx Diabetic Vitamin; Vita-vim - Tab; Vita-vim With Beta-carotene - Tab; Vitafol Caplet; Vitafol Fe Plus; Vitafol OB Caplet; Vitafol One; Vitafol Plus; Vitafol-OB Plus DHA Prenatal Supplement Plus DHA; Vitalife - Capsule; Vitamin & Mineral Formula 1 Dietary Supplement; Vitamin B + C Cap; Vitamin B Complex Suppl; Vitamin B Complex Tab; Vitamin B Compound Tab; Vitamin B3 Tab 10mg USP Chewable; Vp-heme Ob DHA; Vp-pnv-dha; Vtb Vitamin and Mineral Supplement; Vyo Cylate - Pwr; Wellness Formula; WestGel DHA; ahoSAN; bioJET; healthy mamaBE WELL ROUNDED BE WELL ROUNDED

$$$$
638
  Mrv0541 02231214502D          

419456  0  0  1  0            999 V2000
    8.4235    0.1973    0.0000 O   0  0  0  0  0  0  0  0  0  0  0  0
    8.6343   -1.5827    0.0000 O   0  0  0  0  0  0  0  0  0  0  0  0
    8.3845    1.9893    0.0000 O   0  0  0  0  0  0  0  0  0  0  0  0
    8.6732   -3.3748    0.0000 O   0  0  0  0  0  0  0  0  0  0  0  0
    8.1737    3.7693    0.0000 O   0  0  0  0  0  0  0  0  0  0  0  0
    9.0511   -5.1283    0.0000 O   0  0  0  0  0  0  0  0  0  0  0  0
    8.1348    5.5613    0.0000 O   0  0  0  0  0  0  0  0  0  0  0  0
    7.9238    7.3413    0.0000 O   0  0  0  0  0  0  0  0  0  0  0  0
    9.4005   -6.8864    0.0000 O   0  0  0  0  0  0  0  0  0  0  0  0
    7.8850    9.1333    0.0000 O   0  0  0  0  0  0  0  0  0  0  0  0
    9.9173   -8.6027    0.0000 O   0  0  0  0  0  0  0  0  0  0  0  0
    7.6741   10.9133    0.0000 O   0  0  0  0  0  0  0  0  0  0  0  0
   10.2668  -10.3608    0.0000 O   0  0  0  0  0  0  0  0  0  0  0  0
    7.6352   12.7053    0.0000 O   0  0  0  0  0  0  0  0  0  0  0  0
   10.7836  -12.0771    0.0000 O   0  0  0  0  0  0  0  0  0  0  0  0
   11.1331  -13.8351    0.0000 O   0  0  0  0  0  0  0  0  0  0  0  0
    7.4243   14.4853    0.0000 O   0  0  0  0  0  0  0  0  0  0  0  0
   11.6499  -15.5515    0.0000 O   0  0  0  0  0  0  0  0  0  0  0  0
    7.3854   16.2773    0.0000 O   0  0  0  0  0  0  0  0  0  0  0  0
   11.9994  -17.3095    0.0000 O   0  0  0  0  0  0  0  0  0  0  0  0
    9.5858    0.0955    0.0000 O   0  0  0  0  0  0  0  0  0  0  0  0
    7.4044   -0.5136    0.0000 O   0  0  0  0  0  0  0  0  0  0  0  0
    7.1546    3.0584    0.0000 O   0  0  0  0  0  0  0  0  0  0  0  0
    9.8355   -3.4765    0.0000 O   0  0  0  0  0  0  0  0  0  0  0  0
    9.2429    4.9992    0.0000 O   0  0  0  0  0  0  0  0  0  0  0  0
    7.9771   -5.5842    0.0000 O   0  0  0  0  0  0  0  0  0  0  0  0
    6.9049    6.6305    0.0000 O   0  0  0  0  0  0  0  0  0  0  0  0
    7.1746   18.0573    0.0000 O   0  0  0  0  0  0  0  0  0  0  0  0
   10.5629   -6.7846    0.0000 O   0  0  0  0  0  0  0  0  0  0  0  0
    8.9931    8.5712    0.0000 O   0  0  0  0  0  0  0  0  0  0  0  0
    8.8433   -9.0586    0.0000 O   0  0  0  0  0  0  0  0  0  0  0  0
    6.6550   10.2025    0.0000 O   0  0  0  0  0  0  0  0  0  0  0  0
   11.4291  -10.2591    0.0000 O   0  0  0  0  0  0  0  0  0  0  0  0
    8.7432   12.1433    0.0000 O   0  0  0  0  0  0  0  0  0  0  0  0
    9.7096  -12.5330    0.0000 O   0  0  0  0  0  0  0  0  0  0  0  0
    6.4052   13.7746    0.0000 O   0  0  0  0  0  0  0  0  0  0  0  0
   12.2954  -13.7335    0.0000 O   0  0  0  0  0  0  0  0  0  0  0  0
    8.4935   15.7153    0.0000 O   0  0  0  0  0  0  0  0  0  0  0  0
   10.5759  -16.0074    0.0000 O   0  0  0  0  0  0  0  0  0  0  0  0
   12.5162  -19.0258    0.0000 O   0  0  0  0  0  0  0  0  0  0  0  0
    6.2486   16.0149    0.0000 O   0  0  0  0  0  0  0  0  0  0  0  0
    7.1357   19.8494    0.0000 O   0  0  0  0  0  0  0  0  0  0  0  0
   12.8387  -15.9126    0.0000 O   0  0  0  0  0  0  0  0  0  0  0  0
    8.3368   17.9557    0.0000 O   0  0  0  0  0  0  0  0  0  0  0  0
   11.4421  -19.4817    0.0000 O   0  0  0  0  0  0  0  0  0  0  0  0
   12.8656  -20.7839    0.0000 O   0  0  0  0  0  0  0  0  0  0  0  0
    6.9247   21.6294    0.0000 O   0  0  0  0  0  0  0  0  0  0  0  0
    5.9988   19.5869    0.0000 O   0  0  0  0  0  0  0  0  0  0  0  0
   13.7050  -19.3869    0.0000 O   0  0  0  0  0  0  0  0  0  0  0  0
   13.3824  -22.5002    0.0000 O   0  0  0  0  0  0  0  0  0  0  0  0
    8.0870   21.5277    0.0000 O   0  0  0  0  0  0  0  0  0  0  0  0
   11.9855  -21.6609    0.0000 O   0  0  0  0  0  0  0  0  0  0  0  0
    6.8859   23.4215    0.0000 O   0  0  0  0  0  0  0  0  0  0  0  0
    5.7490   23.1589    0.0000 O   0  0  0  0  0  0  0  0  0  0  0  0
   14.5712  -22.8613    0.0000 O   0  0  0  0  0  0  0  0  0  0  0  0
   13.7319  -24.2583    0.0000 O   0  0  0  0  0  0  0  0  0  0  0  0
    6.4343   25.2659    0.0000 O   0  0  0  0  0  0  0  0  0  0  0  0
    7.2737   26.6628    0.0000 O   0  0  0  0  0  0  0  0  0  0  0  0
   12.8517  -25.1353    0.0000 O   0  0  0  0  0  0  0  0  0  0  0  0
   14.2487  -25.9746    0.0000 O   0  0  0  0  0  0  0  0  0  0  0  0
    6.0849   27.0239    0.0000 O   0  0  0  0  0  0  0  0  0  0  0  0
    5.0109   26.5681    0.0000 O   0  0  0  0  0  0  0  0  0  0  0  0
   15.4375  -26.3358    0.0000 O   0  0  0  0  0  0  0  0  0  0  0  0
   14.5981  -27.7327    0.0000 O   0  0  0  0  0  0  0  0  0  0  0  0
    5.5681   28.7403    0.0000 O   0  0  0  0  0  0  0  0  0  0  0  0
    9.6075    2.2442    0.0000 O   0  0  0  0  0  0  0  0  0  0  0  0
    7.3827   -2.6622    0.0000 O   0  0  0  0  0  0  0  0  0  0  0  0
    7.5568    0.9619    0.0000 O   0  0  0  0  0  0  0  0  0  0  0  0
    9.4334   -1.3798    0.0000 O   0  0  0  0  0  0  0  0  0  0  0  0
    9.5635    2.8745    0.0000 O   0  0  0  0  0  0  0  0  0  0  0  0
    7.5679   -3.4685    0.0000 O   0  0  0  0  0  0  0  0  0  0  0  0
    7.3070    4.5339    0.0000 O   0  0  0  0  0  0  0  0  0  0  0  0
    9.8027   -4.7897    0.0000 O   0  0  0  0  0  0  0  0  0  0  0  0
    8.8866    6.4391    0.0000 O   0  0  0  0  0  0  0  0  0  0  0  0
    8.5780   -6.9403    0.0000 O   0  0  0  0  0  0  0  0  0  0  0  0
    7.0572    8.1059    0.0000 O   0  0  0  0  0  0  0  0  0  0  0  0
   10.6690   -8.2642    0.0000 O   0  0  0  0  0  0  0  0  0  0  0  0
    8.6368   10.0111    0.0000 O   0  0  0  0  0  0  0  0  0  0  0  0
    9.4443  -10.4147    0.0000 O   0  0  0  0  0  0  0  0  0  0  0  0
    6.8074   11.6779    0.0000 O   0  0  0  0  0  0  0  0  0  0  0  0
   11.5353  -11.7386    0.0000 O   0  0  0  0  0  0  0  0  0  0  0  0
    8.3870   13.5832    0.0000 O   0  0  0  0  0  0  0  0  0  0  0  0
   10.3105  -13.8891    0.0000 O   0  0  0  0  0  0  0  0  0  0  0  0
    6.3551   18.1471    0.0000 O   0  0  0  0  0  0  0  0  0  0  0  0
   13.1041  -18.0308    0.0000 O   0  0  0  0  0  0  0  0  0  0  0  0
    6.7304   28.8419    0.0000 O   0  0  0  0  0  0  0  0  0  0  0  0
   13.7180  -28.6096    0.0000 O   0  0  0  0  0  0  0  0  0  0  0  0
    7.9346   20.0523    0.0000 O   0  0  0  0  0  0  0  0  0  0  0  0
   11.1767  -17.3635    0.0000 O   0  0  0  0  0  0  0  0  0  0  0  0
    6.1053   21.7191    0.0000 O   0  0  0  0  0  0  0  0  0  0  0  0
   13.9703  -21.5053    0.0000 O   0  0  0  0  0  0  0  0  0  0  0  0
    8.1088   23.6764    0.0000 O   0  0  0  0  0  0  0  0  0  0  0  0
   12.7456  -23.6558    0.0000 O   0  0  0  0  0  0  0  0  0  0  0  0
   15.1150  -29.4490    0.0000 O   0  0  0  0  0  0  0  0  0  0  0  0
   10.9252    1.7580    0.0000 O   0  0  0  0  0  0  0  0  0  0  0  0
    6.0650   -2.1759    0.0000 O   0  0  0  0  0  0  0  0  0  0  0  0
    5.8152    1.3961    0.0000 O   0  0  0  0  0  0  0  0  0  0  0  0
   11.1749   -1.8141    0.0000 O   0  0  0  0  0  0  0  0  0  0  0  0
   10.8006    3.5394    0.0000 O   0  0  0  0  0  0  0  0  0  0  0  0
    6.1896   -4.4171    0.0000 O   0  0  0  0  0  0  0  0  0  0  0  0
    5.5654    4.9681    0.0000 O   0  0  0  0  0  0  0  0  0  0  0  0
   11.5933   -4.9150    0.0000 O   0  0  0  0  0  0  0  0  0  0  0  0
   10.5508    7.1114    0.0000 O   0  0  0  0  0  0  0  0  0  0  0  0
    7.0558   -7.8915    0.0000 O   0  0  0  0  0  0  0  0  0  0  0  0
    5.3156    8.5401    0.0000 O   0  0  0  0  0  0  0  0  0  0  0  0
   12.4596   -8.3894    0.0000 O   0  0  0  0  0  0  0  0  0  0  0  0
   10.3011   10.6835    0.0000 O   0  0  0  0  0  0  0  0  0  0  0  0
    7.9221  -11.3658    0.0000 O   0  0  0  0  0  0  0  0  0  0  0  0
    5.0659   12.1121    0.0000 O   0  0  0  0  0  0  0  0  0  0  0  0
   13.3257  -11.8637    0.0000 O   0  0  0  0  0  0  0  0  0  0  0  0
   10.0512   14.2555    0.0000 O   0  0  0  0  0  0  0  0  0  0  0  0
    8.7884  -14.8402    0.0000 O   0  0  0  0  0  0  0  0  0  0  0  0
    4.6909   17.4747    0.0000 O   0  0  0  0  0  0  0  0  0  0  0  0
   14.6262  -17.0797    0.0000 O   0  0  0  0  0  0  0  0  0  0  0  0
    9.6763   19.6180    0.0000 O   0  0  0  0  0  0  0  0  0  0  0  0
    9.6546  -18.3147    0.0000 O   0  0  0  0  0  0  0  0  0  0  0  0
    5.8555   25.2911    0.0000 O   0  0  0  0  0  0  0  0  0  0  0  0
   14.8366  -24.9796    0.0000 O   0  0  0  0  0  0  0  0  0  0  0  0
    4.4411   21.0467    0.0000 O   0  0  0  0  0  0  0  0  0  0  0  0
   15.4925  -20.5541    0.0000 O   0  0  0  0  0  0  0  0  0  0  0  0
    9.4264   23.1901    0.0000 O   0  0  0  0  0  0  0  0  0  0  0  0
   10.9550  -23.5306    0.0000 O   0  0  0  0  0  0  0  0  0  0  0  0
    5.2187   30.4983    0.0000 O   0  0  0  0  0  0  0  0  0  0  0  0
    7.9584   24.6261    0.0000 O   0  0  0  0  0  0  0  0  0  0  0  0
   13.6119  -27.1302    0.0000 O   0  0  0  0  0  0  0  0  0  0  0  0
    4.1913   24.6187    0.0000 O   0  0  0  0  0  0  0  0  0  0  0  0
   16.3588  -24.0284    0.0000 O   0  0  0  0  0  0  0  0  0  0  0  0
    9.0613   25.4957    0.0000 O   0  0  0  0  0  0  0  0  0  0  0  0
   11.8213  -27.0049    0.0000 O   0  0  0  0  0  0  0  0  0  0  0  0
    4.1447   30.0424    0.0000 O   0  0  0  0  0  0  0  0  0  0  0  0
   16.3037  -29.8101    0.0000 O   0  0  0  0  0  0  0  0  0  0  0  0
    4.7455   28.6863    0.0000 O   0  0  0  0  0  0  0  0  0  0  0  0
   15.7029  -28.4540    0.0000 O   0  0  0  0  0  0  0  0  0  0  0  0
    3.2234   27.7352    0.0000 O   0  0  0  0  0  0  0  0  0  0  0  0
   17.2250  -27.5028    0.0000 O   0  0  0  0  0  0  0  0  0  0  0  0
   15.4644  -31.2070    0.0000 O   0  0  0  0  0  0  0  0  0  0  0  0
    5.9703   30.8369    0.0000 O   0  0  0  0  0  0  0  0  0  0  0  0
   14.4781  -30.6046    0.0000 O   0  0  0  0  0  0  0  0  0  0  0  0
   11.7788    0.3548    0.0000 O   0  0  0  0  0  0  0  0  0  0  0  0
    5.9685    0.4391    0.0000 O   0  0  0  0  0  0  0  0  0  0  0  0
    5.7188    4.0112    0.0000 O   0  0  0  0  0  0  0  0  0  0  0  0
   12.0286   -3.2173    0.0000 O   0  0  0  0  0  0  0  0  0  0  0  0
   10.5321    6.1425    0.0000 O   0  0  0  0  0  0  0  0  0  0  0  0
    5.8113   -6.0154    0.0000 O   0  0  0  0  0  0  0  0  0  0  0  0
    5.4690    7.5832    0.0000 O   0  0  0  0  0  0  0  0  0  0  0  0
   12.6776   -6.1486    0.0000 O   0  0  0  0  0  0  0  0  0  0  0  0
   10.2823    9.7145    0.0000 O   0  0  0  0  0  0  0  0  0  0  0  0
    6.6776   -9.4898    0.0000 O   0  0  0  0  0  0  0  0  0  0  0  0
    5.2193   11.1552    0.0000 O   0  0  0  0  0  0  0  0  0  0  0  0
   13.5439   -9.6230    0.0000 O   0  0  0  0  0  0  0  0  0  0  0  0
    7.7608   30.7117    0.0000 O   0  0  0  0  0  0  0  0  0  0  0  0
   10.0325   13.2865    0.0000 O   0  0  0  0  0  0  0  0  0  0  0  0
    7.5438  -12.9641    0.0000 O   0  0  0  0  0  0  0  0  0  0  0  0
    4.7019   32.2146    0.0000 O   0  0  0  0  0  0  0  0  0  0  0  0
    4.9694   14.7272    0.0000 O   0  0  0  0  0  0  0  0  0  0  0  0
   14.4102  -13.0974    0.0000 O   0  0  0  0  0  0  0  0  0  0  0  0
   12.6876  -30.4793    0.0000 O   0  0  0  0  0  0  0  0  0  0  0  0
    9.7828   16.8585    0.0000 O   0  0  0  0  0  0  0  0  0  0  0  0
    8.4101  -16.4386    0.0000 O   0  0  0  0  0  0  0  0  0  0  0  0
    4.0408   15.9664    0.0000 O   0  0  0  0  0  0  0  0  0  0  0  0
   13.9099  -14.5629    0.0000 O   0  0  0  0  0  0  0  0  0  0  0  0
   10.5299   18.2149    0.0000 O   0  0  0  0  0  0  0  0  0  0  0  0
    9.2763  -19.9130    0.0000 O   0  0  0  0  0  0  0  0  0  0  0  0
    3.7911   19.5384    0.0000 O   0  0  0  0  0  0  0  0  0  0  0  0
   14.7761  -18.0372    0.0000 O   0  0  0  0  0  0  0  0  0  0  0  0
   10.2801   21.7869    0.0000 O   0  0  0  0  0  0  0  0  0  0  0  0
   10.4060  -20.9720    0.0000 O   0  0  0  0  0  0  0  0  0  0  0  0
    3.5412   23.1104    0.0000 O   0  0  0  0  0  0  0  0  0  0  0  0
   15.6424  -21.5116    0.0000 O   0  0  0  0  0  0  0  0  0  0  0  0
    3.8793   32.1607    0.0000 O   0  0  0  0  0  0  0  0  0  0  0  0
   16.5692  -31.9284    0.0000 O   0  0  0  0  0  0  0  0  0  0  0  0
    8.3449   28.0125    0.0000 O   0  0  0  0  0  0  0  0  0  0  0  0
   11.2723  -24.4464    0.0000 O   0  0  0  0  0  0  0  0  0  0  0  0
    5.8642   32.3163    0.0000 O   0  0  0  0  0  0  0  0  0  0  0  0
    2.3571   31.2096    0.0000 O   0  0  0  0  0  0  0  0  0  0  0  0
   18.0913  -30.9772    0.0000 O   0  0  0  0  0  0  0  0  0  0  0  0
    2.8451   26.1368    0.0000 O   0  0  0  0  0  0  0  0  0  0  0  0
   16.5087  -24.9860    0.0000 O   0  0  0  0  0  0  0  0  0  0  0  0
   16.1788  -32.4445    0.0000 O   0  0  0  0  0  0  0  0  0  0  0  0
    8.8451   29.4780    0.0000 O   0  0  0  0  0  0  0  0  0  0  0  0
   12.1385  -27.9208    0.0000 O   0  0  0  0  0  0  0  0  0  0  0  0
    5.1040   34.3112    0.0000 O   0  0  0  0  0  0  0  0  0  0  0  0
    1.9788   29.6113    0.0000 O   0  0  0  0  0  0  0  0  0  0  0  0
   18.4696  -29.3789    0.0000 O   0  0  0  0  0  0  0  0  0  0  0  0
   14.0354  -32.0320    0.0000 O   0  0  0  0  0  0  0  0  0  0  0  0
    6.8945   34.1861    0.0000 O   0  0  0  0  0  0  0  0  0  0  0  0
   14.0354  -33.6821    0.0000 O   0  0  0  0  0  0  0  0  0  0  0  0
   15.4644  -34.5071    0.0000 O   0  0  0  0  0  0  0  0  0  0  0  0
    4.3524   33.9727    0.0000 O   0  0  0  0  0  0  0  0  0  0  0  0
    7.9789   32.9524    0.0000 O   0  0  0  0  0  0  0  0  0  0  0  0
   16.8934  -34.5071    0.0000 O   0  0  0  0  0  0  0  0  0  0  0  0
    9.0554    0.7276    0.0000 C   0  0  2  0  0  0  0  0  0  0  0  0
    7.9347   -1.1455    0.0000 C   0  0  2  0  0  0  0  0  0  0  0  0
    7.6849    2.4265    0.0000 C   0  0  2  0  0  0  0  0  0  0  0  0
    9.3053   -2.8444    0.0000 C   0  0  2  0  0  0  0  0  0  0  0  0
    8.8056    4.2996    0.0000 C   0  0  2  0  0  0  0  0  0  0  0  0
    8.2862   -4.8193    0.0000 C   0  0  2  0  0  0  0  0  0  0  0  0
    7.4351    5.9985    0.0000 C   0  0  2  0  0  0  0  0  0  0  0  0
    9.9309   -6.2544    0.0000 C   0  0  2  0  0  0  0  0  0  0  0  0
    8.5559    7.8716    0.0000 C   0  0  2  0  0  0  0  0  0  0  0  0
    9.1525   -8.2936    0.0000 C   0  0  2  0  0  0  0  0  0  0  0  0
    7.1854    9.5705    0.0000 C   0  0  2  0  0  0  0  0  0  0  0  0
   10.7971   -9.7287    0.0000 C   0  0  2  0  0  0  0  0  0  0  0  0
    8.3061   11.4436    0.0000 C   0  0  2  0  0  0  0  0  0  0  0  0
   10.0186  -11.7680    0.0000 C   0  0  2  0  0  0  0  0  0  0  0  0
    6.9355   13.1425    0.0000 C   0  0  2  0  0  0  0  0  0  0  0  0
   11.6634  -13.2031    0.0000 C   0  0  2  0  0  0  0  0  0  0  0  0
    8.0563   15.0156    0.0000 C   0  0  2  0  0  0  0  0  0  0  0  0
   10.8849  -15.2424    0.0000 C   0  0  2  0  0  0  0  0  0  0  0  0
    6.6858   16.7146    0.0000 C   0  0  2  0  0  0  0  0  0  0  0  0
   12.5297  -16.6775    0.0000 C   0  0  2  0  0  0  0  0  0  0  0  0
    7.8065   18.5877    0.0000 C   0  0  2  0  0  0  0  0  0  0  0  0
   11.7512  -18.7168    0.0000 C   0  0  2  0  0  0  0  0  0  0  0  0
    6.4360   20.2866    0.0000 C   0  0  2  0  0  0  0  0  0  0  0  0
   13.3960  -20.1519    0.0000 C   0  0  2  0  0  0  0  0  0  0  0  0
    7.5568   22.1597    0.0000 C   0  0  2  0  0  0  0  0  0  0  0  0
   12.6175  -22.1912    0.0000 C   0  0  2  0  0  0  0  0  0  0  0  0
    6.1863   23.8586    0.0000 C   0  0  2  0  0  0  0  0  0  0  0  0
   14.2621  -23.6263    0.0000 C   0  0  1  0  0  0  0  0  0  0  0  0
    9.4926    1.4272    0.0000 C   0  0  2  0  0  0  0  0  0  0  0  0
    7.4975   -1.8452    0.0000 C   0  0  2  0  0  0  0  0  0  0  0  0
    7.2477    1.7269    0.0000 C   0  0  2  0  0  0  0  0  0  0  0  0
    9.7424   -2.1448    0.0000 C   0  0  2  0  0  0  0  0  0  0  0  0
    9.3359    3.6676    0.0000 C   0  0  2  0  0  0  0  0  0  0  0  0
    7.6541   -4.2890    0.0000 C   0  0  2  0  0  0  0  0  0  0  0  0
    6.9979    5.2989    0.0000 C   0  0  2  0  0  0  0  0  0  0  0  0
   10.2399   -5.4894    0.0000 C   0  0  2  0  0  0  0  0  0  0  0  0
    9.0862    7.2396    0.0000 C   0  0  2  0  0  0  0  0  0  0  0  0
    8.5204   -7.7634    0.0000 C   0  0  2  0  0  0  0  0  0  0  0  0
    6.7482    8.8709    0.0000 C   0  0  2  0  0  0  0  0  0  0  0  0
   11.1062   -8.9638    0.0000 C   0  0  2  0  0  0  0  0  0  0  0  0
    8.8364   10.8117    0.0000 C   0  0  2  0  0  0  0  0  0  0  0  0
    9.3867  -11.2377    0.0000 C   0  0  2  0  0  0  0  0  0  0  0  0
    6.4984   12.4429    0.0000 C   0  0  2  0  0  0  0  0  0  0  0  0
   11.9725  -12.4382    0.0000 C   0  0  2  0  0  0  0  0  0  0  0  0
    8.5867   14.3837    0.0000 C   0  0  2  0  0  0  0  0  0  0  0  0
   10.2530  -14.7121    0.0000 C   0  0  2  0  0  0  0  0  0  0  0  0
    6.1555   17.3466    0.0000 C   0  0  2  0  0  0  0  0  0  0  0  0
   13.1617  -17.2078    0.0000 C   0  0  2  0  0  0  0  0  0  0  0  0
    8.2437   19.2874    0.0000 C   0  0  2  0  0  0  0  0  0  0  0  0
   11.1192  -18.1864    0.0000 C   0  0  2  0  0  0  0  0  0  0  0  0
    5.9057   20.9186    0.0000 C   0  0  2  0  0  0  0  0  0  0  0  0
   14.0279  -20.6822    0.0000 C   0  0  2  0  0  0  0  0  0  0  0  0
    6.9647   25.8979    0.0000 C   0  0  2  0  0  0  0  0  0  0  0  0
   13.4837  -25.6656    0.0000 C   0  0  1  0  0  0  0  0  0  0  0  0
    7.9940   22.8594    0.0000 C   0  0  2  0  0  0  0  0  0  0  0  0
   12.3084  -22.9561    0.0000 C   0  0  2  0  0  0  0  0  0  0  0  0
    8.5667   -0.6152    0.0000 C   0  0  0  0  0  0  0  0  0  0  0  0
    8.3558    1.1648    0.0000 C   0  0  0  0  0  0  0  0  0  0  0  0
    8.6056   -2.4072    0.0000 C   0  0  0  0  0  0  0  0  0  0  0  0
    8.3169    2.9568    0.0000 C   0  0  0  0  0  0  0  0  0  0  0  0
    8.8165   -4.1872    0.0000 C   0  0  0  0  0  0  0  0  0  0  0  0
    8.1060    4.7368    0.0000 C   0  0  0  0  0  0  0  0  0  0  0  0
    9.1659   -5.9454    0.0000 C   0  0  0  0  0  0  0  0  0  0  0  0
    8.0671    6.5288    0.0000 C   0  0  0  0  0  0  0  0  0  0  0  0
    9.6827   -7.6616    0.0000 C   0  0  0  0  0  0  0  0  0  0  0  0
    7.8562    8.3088    0.0000 C   0  0  0  0  0  0  0  0  0  0  0  0
   10.0322   -9.4197    0.0000 C   0  0  0  0  0  0  0  0  0  0  0  0
    7.8173   10.1008    0.0000 C   0  0  0  0  0  0  0  0  0  0  0  0
   10.5490  -11.1361    0.0000 C   0  0  0  0  0  0  0  0  0  0  0  0
    7.6065   11.8808    0.0000 C   0  0  0  0  0  0  0  0  0  0  0  0
   10.8985  -12.8941    0.0000 C   0  0  0  0  0  0  0  0  0  0  0  0
    7.5676   13.6728    0.0000 C   0  0  0  0  0  0  0  0  0  0  0  0
   11.4152  -14.6104    0.0000 C   0  0  0  0  0  0  0  0  0  0  0  0
    7.3566   15.4528    0.0000 C   0  0  0  0  0  0  0  0  0  0  0  0
   10.2931    1.2276    0.0000 C   0  0  1  0  0  0  0  0  0  0  0  0
    6.6969   -1.6456    0.0000 C   0  0  1  0  0  0  0  0  0  0  0  0
    6.4472    1.9264    0.0000 C   0  0  1  0  0  0  0  0  0  0  0  0
   10.5429   -2.3444    0.0000 C   0  0  1  0  0  0  0  0  0  0  0  0
   10.1009    3.9766    0.0000 C   0  0  1  0  0  0  0  0  0  0  0  0
    6.9545   -4.7261    0.0000 C   0  0  1  0  0  0  0  0  0  0  0  0
    6.1974    5.4984    0.0000 C   0  0  1  0  0  0  0  0  0  0  0  0
   11.0630   -5.5469    0.0000 C   0  0  1  0  0  0  0  0  0  0  0  0
   11.7647  -16.3684    0.0000 C   0  0  0  0  0  0  0  0  0  0  0  0
    9.8512    7.5487    0.0000 C   0  0  1  0  0  0  0  0  0  0  0  0
    7.8208   -8.2005    0.0000 C   0  0  1  0  0  0  0  0  0  0  0  0
    5.9477    9.0705    0.0000 C   0  0  1  0  0  0  0  0  0  0  0  0
   11.9292   -9.0214    0.0000 C   0  0  1  0  0  0  0  0  0  0  0  0
    9.6014   11.1207    0.0000 C   0  0  1  0  0  0  0  0  0  0  0  0
    7.3178   17.2448    0.0000 C   0  0  0  0  0  0  0  0  0  0  0  0
    8.6870  -11.6749    0.0000 C   0  0  1  0  0  0  0  0  0  0  0  0
    5.6978   12.6425    0.0000 C   0  0  1  0  0  0  0  0  0  0  0  0
   12.7955  -12.4958    0.0000 C   0  0  1  0  0  0  0  0  0  0  0  0
    9.3515   14.6927    0.0000 C   0  0  1  0  0  0  0  0  0  0  0  0
    9.5533  -15.1493    0.0000 C   0  0  1  0  0  0  0  0  0  0  0  0
   12.2815  -18.0848    0.0000 C   0  0  0  0  0  0  0  0  0  0  0  0
    5.3905   17.0375    0.0000 C   0  0  1  0  0  0  0  0  0  0  0  0
   13.8614  -16.7706    0.0000 C   0  0  1  0  0  0  0  0  0  0  0  0
    7.1069   19.0249    0.0000 C   0  0  0  0  0  0  0  0  0  0  0  0
    9.0442   19.0878    0.0000 C   0  0  1  0  0  0  0  0  0  0  0  0
   12.6310  -19.8428    0.0000 C   0  0  0  0  0  0  0  0  0  0  0  0
   10.4195  -18.6237    0.0000 C   0  0  1  0  0  0  0  0  0  0  0  0
    5.6559   24.4906    0.0000 C   0  0  2  0  0  0  0  0  0  0  0  0
   14.8942  -24.1566    0.0000 C   0  0  2  0  0  0  0  0  0  0  0  0
   10.3507    0.4046    0.0000 C   0  0  1  0  0  0  0  0  0  0  0  0
    6.6394   -0.8226    0.0000 C   0  0  1  0  0  0  0  0  0  0  0  0
    7.0680   20.8169    0.0000 C   0  0  0  0  0  0  0  0  0  0  0  0
    6.3896    2.7494    0.0000 C   0  0  1  0  0  0  0  0  0  0  0  0
   10.6005   -3.1674    0.0000 C   0  0  1  0  0  0  0  0  0  0  0  0
   10.0434    4.7996    0.0000 C   0  0  1  0  0  0  0  0  0  0  0  0
    7.1541   -5.5267    0.0000 C   0  0  1  0  0  0  0  0  0  0  0  0
    6.1399    6.3215    0.0000 C   0  0  1  0  0  0  0  0  0  0  0  0
   11.2625   -6.3475    0.0000 C   0  0  1  0  0  0  0  0  0  0  0  0
    9.7936    8.3717    0.0000 C   0  0  1  0  0  0  0  0  0  0  0  0
    8.0204   -9.0011    0.0000 C   0  0  1  0  0  0  0  0  0  0  0  0
    5.8901    9.8935    0.0000 C   0  0  1  0  0  0  0  0  0  0  0  0
   12.1288   -9.8219    0.0000 C   0  0  1  0  0  0  0  0  0  0  0  0
    9.5438   11.9437    0.0000 C   0  0  1  0  0  0  0  0  0  0  0  0
    8.8866  -12.4754    0.0000 C   0  0  1  0  0  0  0  0  0  0  0  0
    5.1408   20.6095    0.0000 C   0  0  1  0  0  0  0  0  0  0  0  0
   14.7275  -20.2450    0.0000 C   0  0  1  0  0  0  0  0  0  0  0  0
    5.6403   13.4655    0.0000 C   0  0  1  0  0  0  0  0  0  0  0  0
   12.9951  -13.2963    0.0000 C   0  0  1  0  0  0  0  0  0  0  0  0
    9.2940   15.5157    0.0000 C   0  0  1  0  0  0  0  0  0  0  0  0
    9.7529  -15.9498    0.0000 C   0  0  1  0  0  0  0  0  0  0  0  0
   13.1478  -21.5591    0.0000 C   0  0  0  0  0  0  0  0  0  0  0  0
    5.4481   16.2145    0.0000 C   0  0  1  0  0  0  0  0  0  0  0  0
   13.6617  -15.9701    0.0000 C   0  0  1  0  0  0  0  0  0  0  0  0
    9.1018   18.2647    0.0000 C   0  0  1  0  0  0  0  0  0  0  0  0
   10.6191  -19.4242    0.0000 C   0  0  1  0  0  0  0  0  0  0  0  0
    6.8571   22.5969    0.0000 C   0  0  0  0  0  0  0  0  0  0  0  0
    8.7945   22.6598    0.0000 C   0  0  1  0  0  0  0  0  0  0  0  0
   11.4854  -22.8986    0.0000 C   0  0  1  0  0  0  0  0  0  0  0  0
    5.3200   27.3330    0.0000 C   0  0  2  0  0  0  0  0  0  0  0  0
   15.1284  -27.1006    0.0000 C   0  0  1  0  0  0  0  0  0  0  0  0
    5.1983   19.7865    0.0000 C   0  0  1  0  0  0  0  0  0  0  0  0
   14.5280  -19.4445    0.0000 C   0  0  1  0  0  0  0  0  0  0  0  0
   13.4973  -23.3173    0.0000 C   0  0  0  0  0  0  0  0  0  0  0  0
    7.5967   25.3676    0.0000 C   0  0  2  0  0  0  0  0  0  0  0  0
   13.1747  -26.4305    0.0000 C   0  0  2  0  0  0  0  0  0  0  0  0
    8.8520   21.8368    0.0000 C   0  0  1  0  0  0  0  0  0  0  0  0
   11.2858  -22.0980    0.0000 C   0  0  1  0  0  0  0  0  0  0  0  0
    4.8910   24.1815    0.0000 C   0  0  1  0  0  0  0  0  0  0  0  0
   15.5938  -23.7194    0.0000 C   0  0  1  0  0  0  0  0  0  0  0  0
    6.7166   24.4906    0.0000 C   0  0  0  0  0  0  0  0  0  0  0  0
    4.9486   23.3586    0.0000 C   0  0  1  0  0  0  0  0  0  0  0  0
   15.3942  -22.9189    0.0000 C   0  0  1  0  0  0  0  0  0  0  0  0
   14.0141  -25.0335    0.0000 C   0  0  0  0  0  0  0  0  0  0  0  0
    8.2963   25.8048    0.0000 C   0  0  1  0  0  0  0  0  0  0  0  0
   12.3516  -26.3730    0.0000 C   0  0  1  0  0  0  0  0  0  0  0  0
    6.1997   26.2070    0.0000 C   0  0  0  0  0  0  0  0  0  0  0  0
    4.6879   27.8633    0.0000 C   0  0  2  0  0  0  0  0  0  0  0  0
   15.7605  -27.6310    0.0000 C   0  0  2  0  0  0  0  0  0  0  0  0
    8.0968   26.6053    0.0000 C   0  0  1  0  0  0  0  0  0  0  0  0
   12.1521  -25.5724    0.0000 C   0  0  1  0  0  0  0  0  0  0  0  0
    6.0984   29.3723    0.0000 C   0  0  2  0  0  0  0  0  0  0  0  0
   14.3500  -29.1399    0.0000 C   0  0  1  0  0  0  0  0  0  0  0  0
   14.3635  -26.7916    0.0000 C   0  0  0  0  0  0  0  0  0  0  0  0
    3.9883   27.4261    0.0000 C   0  0  1  0  0  0  0  0  0  0  0  0
   16.4601  -27.1938    0.0000 C   0  0  1  0  0  0  0  0  0  0  0  0
    5.8503   27.9650    0.0000 C   0  0  0  0  0  0  0  0  0  0  0  0
    4.1879   26.6256    0.0000 C   0  0  1  0  0  0  0  0  0  0  0  0
   16.2605  -26.3933    0.0000 C   0  0  1  0  0  0  0  0  0  0  0  0
    6.4074   30.1372    0.0000 C   0  0  2  0  0  0  0  0  0  0  0  0
   14.0410  -29.9049    0.0000 C   0  0  2  0  0  0  0  0  0  0  0  0
   14.8803  -28.5080    0.0000 C   0  0  0  0  0  0  0  0  0  0  0  0
   11.0503   -0.0326    0.0000 C   0  0  0  0  0  0  0  0  0  0  0  0
    5.9397   -0.3855    0.0000 C   0  0  0  0  0  0  0  0  0  0  0  0
    5.6900    3.1866    0.0000 C   0  0  0  0  0  0  0  0  0  0  0  0
   11.3002   -3.6046    0.0000 C   0  0  0  0  0  0  0  0  0  0  0  0
   10.6754    5.3300    0.0000 C   0  0  0  0  0  0  0  0  0  0  0  0
    6.6238   -6.1587    0.0000 C   0  0  0  0  0  0  0  0  0  0  0  0
    5.4402    6.7587    0.0000 C   0  0  0  0  0  0  0  0  0  0  0  0
   12.0275   -6.6565    0.0000 C   0  0  0  0  0  0  0  0  0  0  0  0
   10.4255    8.9020    0.0000 C   0  0  0  0  0  0  0  0  0  0  0  0
    7.4900   -9.6330    0.0000 C   0  0  0  0  0  0  0  0  0  0  0  0
    5.1905   10.3307    0.0000 C   0  0  0  0  0  0  0  0  0  0  0  0
   12.8938  -10.1309    0.0000 C   0  0  0  0  0  0  0  0  0  0  0  0
   10.1758   12.4740    0.0000 C   0  0  0  0  0  0  0  0  0  0  0  0
    7.2305   30.0796    0.0000 C   0  0  1  0  0  0  0  0  0  0  0  0
    8.3563  -13.1074    0.0000 C   0  0  0  0  0  0  0  0  0  0  0  0
    4.9406   13.9027    0.0000 C   0  0  0  0  0  0  0  0  0  0  0  0
   13.7600  -13.6053    0.0000 C   0  0  0  0  0  0  0  0  0  0  0  0
   13.2179  -29.8473    0.0000 C   0  0  1  0  0  0  0  0  0  0  0  0
    9.9260   16.0460    0.0000 C   0  0  0  0  0  0  0  0  0  0  0  0
    9.2226  -16.5818    0.0000 C   0  0  0  0  0  0  0  0  0  0  0  0
    4.8161   15.6842    0.0000 C   0  0  0  0  0  0  0  0  0  0  0  0
   14.1920  -15.3381    0.0000 C   0  0  0  0  0  0  0  0  0  0  0  0
    9.8014   17.8276    0.0000 C   0  0  0  0  0  0  0  0  0  0  0  0
   10.0889  -20.0562    0.0000 C   0  0  0  0  0  0  0  0  0  0  0  0
    7.4301   29.2792    0.0000 C   0  0  1  0  0  0  0  0  0  0  0  0
    4.5663   19.2562    0.0000 C   0  0  0  0  0  0  0  0  0  0  0  0
   15.0583  -18.8125    0.0000 C   0  0  0  0  0  0  0  0  0  0  0  0
   13.0183  -29.0468    0.0000 C   0  0  1  0  0  0  0  0  0  0  0  0
    4.4537   30.8074    0.0000 C   0  0  2  0  0  0  0  0  0  0  0  0
    5.3335   29.6813    0.0000 C   0  0  0  0  0  0  0  0  0  0  0  0
   15.9947  -30.5750    0.0000 C   0  0  2  0  0  0  0  0  0  0  0  0
    9.5517   21.3996    0.0000 C   0  0  0  0  0  0  0  0  0  0  0  0
   10.5208  -21.7890    0.0000 C   0  0  0  0  0  0  0  0  0  0  0  0
    4.3165   22.8283    0.0000 C   0  0  0  0  0  0  0  0  0  0  0  0
   15.9246  -22.2869    0.0000 C   0  0  0  0  0  0  0  0  0  0  0  0
    3.8217   31.3377    0.0000 C   0  0  2  0  0  0  0  0  0  0  0  0
   15.2297  -30.2660    0.0000 C   0  0  0  0  0  0  0  0  0  0  0  0
   16.6267  -31.1054    0.0000 C   0  0  2  0  0  0  0  0  0  0  0  0
    8.6271   27.2373    0.0000 C   0  0  0  0  0  0  0  0  0  0  0  0
   11.3871  -25.2634    0.0000 C   0  0  0  0  0  0  0  0  0  0  0  0
    3.1220   30.9005    0.0000 C   0  0  1  0  0  0  0  0  0  0  0  0
   17.3264  -30.6682    0.0000 C   0  0  1  0  0  0  0  0  0  0  0  0
    3.6576   25.9936    0.0000 C   0  0  0  0  0  0  0  0  0  0  0  0
   16.7908  -25.7613    0.0000 C   0  0  0  0  0  0  0  0  0  0  0  0
    3.3216   30.1000    0.0000 C   0  0  1  0  0  0  0  0  0  0  0  0
   17.1268  -29.8677    0.0000 C   0  0  1  0  0  0  0  0  0  0  0  0
    4.9840   31.4393    0.0000 C   0  0  0  0  0  0  0  0  0  0  0  0
    8.1950   28.9701    0.0000 C   0  0  0  0  0  0  0  0  0  0  0  0
   12.2534  -28.7377    0.0000 C   0  0  0  0  0  0  0  0  0  0  0  0
    5.2321   32.8467    0.0000 C   0  0  2  0  0  0  0  0  0  0  0  0
   15.4644  -32.0320    0.0000 C   0  0  1  0  0  0  0  0  0  0  0  0
    5.5413   33.6116    0.0000 C   0  0  2  0  0  0  0  0  0  0  0  0
    2.7913   29.4680    0.0000 C   0  0  0  0  0  0  0  0  0  0  0  0
   17.6571  -29.2356    0.0000 C   0  0  0  0  0  0  0  0  0  0  0  0
   14.7499  -32.4445    0.0000 C   0  0  1  0  0  0  0  0  0  0  0  0
    6.3642   33.5540    0.0000 C   0  0  1  0  0  0  0  0  0  0  0  0
    6.5638   32.7535    0.0000 C   0  0  1  0  0  0  0  0  0  0  0  0
   14.7499  -33.2696    0.0000 C   0  0  2  0  0  0  0  0  0  0  0  0
   15.4644  -33.6821    0.0000 C   0  0  1  0  0  0  0  0  0  0  0  0
   16.1788  -33.2696    0.0000 C   0  0  1  0  0  0  0  0  0  0  0  0
    4.4672   33.1557    0.0000 C   0  0  0  0  0  0  0  0  0  0  0  0
    7.3287   32.4445    0.0000 C   0  0  0  0  0  0  0  0  0  0  0  0
   16.8934  -33.6821    0.0000 C   0  0  0  0  0  0  0  0  0  0  0  0
192  1  1  1  0  0  0
  1248  1  0  0  0  0
193  2  1  1  0  0  0
  2250  1  0  0  0  0
194  3  1  1  0  0  0
  3249  1  0  0  0  0
195  4  1  1  0  0  0
  4252  1  0  0  0  0
196  5  1  6  0  0  0
  5251  1  0  0  0  0
197  6  1  6  0  0  0
  6254  1  0  0  0  0
198  7  1  1  0  0  0
  7253  1  0  0  0  0
200  8  1  6  0  0  0
  8255  1  0  0  0  0
199  9  1  1  0  0  0
  9256  1  0  0  0  0
202 10  1  1  0  0  0
 10257  1  0  0  0  0
201 11  1  6  0  0  0
 11258  1  0  0  0  0
204 12  1  6  0  0  0
 12259  1  0  0  0  0
203 13  1  1  0  0  0
 13260  1  0  0  0  0
206 14  1  1  0  0  0
 14261  1  0  0  0  0
205 15  1  6  0  0  0
 15262  1  0  0  0  0
207 16  1  1  0  0  0
 16264  1  0  0  0  0
208 17  1  6  0  0  0
 17263  1  0  0  0  0
209 18  1  6  0  0  0
 18274  1  0  0  0  0
210 19  1  6  0  0  0
 19265  1  0  0  0  0
211 20  1  6  0  0  0
 20286  1  0  0  0  0
 21192  1  0  0  0  0
 21295  1  0  0  0  0
 22193  1  0  0  0  0
 22296  1  0  0  0  0
 23194  1  0  0  0  0
 23298  1  0  0  0  0
 24195  1  0  0  0  0
 24299  1  0  0  0  0
 25196  1  0  0  0  0
 25300  1  0  0  0  0
 26197  1  0  0  0  0
 26301  1  0  0  0  0
 27198  1  0  0  0  0
 27302  1  0  0  0  0
212 28  1  1  0  0  0
 28280  1  0  0  0  0
 29199  1  0  0  0  0
 29303  1  0  0  0  0
 30200  1  0  0  0  0
 30304  1  0  0  0  0
 31201  1  0  0  0  0
 31305  1  0  0  0  0
 32202  1  0  0  0  0
 32306  1  0  0  0  0
 33203  1  0  0  0  0
 33307  1  0  0  0  0
 34204  1  0  0  0  0
 34308  1  0  0  0  0
 35205  1  0  0  0  0
 35309  1  0  0  0  0
 36206  1  0  0  0  0
 36312  1  0  0  0  0
 37207  1  0  0  0  0
 37313  1  0  0  0  0
 38208  1  0  0  0  0
 38314  1  0  0  0  0
 39209  1  0  0  0  0
 39315  1  0  0  0  0
213 40  1  6  0  0  0
 40291  1  0  0  0  0
 41210  1  0  0  0  0
 41317  1  0  0  0  0
214 42  1  6  0  0  0
 42289  1  0  0  0  0
 43211  1  0  0  0  0
 43318  1  0  0  0  0
 44212  1  0  0  0  0
 44319  1  0  0  0  0
 45213  1  0  0  0  0
 45320  1  0  0  0  0
215 46  1  6  0  0  0
 46316  1  0  0  0  0
216 47  1  1  0  0  0
 47297  1  0  0  0  0
 48214  1  0  0  0  0
 48326  1  0  0  0  0
 49215  1  0  0  0  0
 49327  1  0  0  0  0
217 50  1  1  0  0  0
 50328  1  0  0  0  0
 51216  1  0  0  0  0
 51331  1  0  0  0  0
 52217  1  0  0  0  0
 52332  1  0  0  0  0
218 53  1  6  0  0  0
 53321  1  0  0  0  0
 54218  1  0  0  0  0
 54336  1  0  0  0  0
 55219  1  0  0  0  0
 55337  1  0  0  0  0
219 56  1  6  0  0  0
 56338  1  0  0  0  0
244 57  1  6  0  0  0
 57335  1  0  0  0  0
 58244  1  0  0  0  0
 58344  1  0  0  0  0
 59245  1  0  0  0  0
 59345  1  0  0  0  0
245 60  1  1  0  0  0
 60348  1  0  0  0  0
324 61  1  6  0  0  0
 61341  1  0  0  0  0
 62324  1  0  0  0  0
 62352  1  0  0  0  0
 63325  1  0  0  0  0
 63353  1  0  0  0  0
325 64  1  6  0  0  0
 64356  1  0  0  0  0
346 65  1  1  0  0  0
 65351  1  0  0  0  0
220 66  1  1  0  0  0
221 67  1  1  0  0  0
222 68  1  1  0  0  0
223 69  1  1  0  0  0
224 70  1  6  0  0  0
225 71  1  6  0  0  0
226 72  1  1  0  0  0
227 73  1  1  0  0  0
228 74  1  6  0  0  0
229 75  1  6  0  0  0
230 76  1  1  0  0  0
231 77  1  1  0  0  0
232 78  1  6  0  0  0
233 79  1  6  0  0  0
234 80  1  1  0  0  0
235 81  1  1  0  0  0
236 82  1  6  0  0  0
237 83  1  6  0  0  0
238 84  1  6  0  0  0
239 85  1  6  0  0  0
 86346  1  0  0  0  0
 86381  1  0  0  0  0
 87347  1  0  0  0  0
 87384  1  0  0  0  0
240 88  1  1  0  0  0
241 89  1  6  0  0  0
242 90  1  6  0  0  0
243 91  1  6  0  0  0
246 92  1  1  0  0  0
247 93  1  1  0  0  0
347 94  1  1  0  0  0
 94393  1  0  0  0  0
266 95  1  6  0  0  0
267 96  1  6  0  0  0
268 97  1  6  0  0  0
269 98  1  6  0  0  0
270 99  1  1  0  0  0
271100  1  1  0  0  0
272101  1  6  0  0  0
273102  1  6  0  0  0
275103  1  1  0  0  0
276104  1  1  0  0  0
277105  1  6  0  0  0
278106  1  6  0  0  0
279107  1  1  0  0  0
281108  1  1  0  0  0
282109  1  6  0  0  0
283110  1  6  0  0  0
284111  1  1  0  0  0
285112  1  1  0  0  0
287113  1  1  0  0  0
288114  1  1  0  0  0
290115  1  6  0  0  0
292116  1  1  0  0  0
293117  1  6  0  0  0
294118  1  6  0  0  0
310119  1  1  0  0  0
311120  1  1  0  0  0
322121  1  6  0  0  0
323122  1  6  0  0  0
385123  1  6  0  0  0
123386  1  0  0  0  0
329124  1  6  0  0  0
330125  1  1  0  0  0
333126  1  1  0  0  0
334127  1  1  0  0  0
339128  1  1  0  0  0
340129  1  6  0  0  0
130385  1  0  0  0  0
130401  1  0  0  0  0
131387  1  0  0  0  0
131402  1  0  0  0  0
342132  1  6  0  0  0
343133  1  6  0  0  0
349134  1  1  0  0  0
350135  1  1  0  0  0
387136  1  6  0  0  0
407136  1  1  0  0  0
354137  1  1  0  0  0
355138  1  1  0  0  0
139357  1  0  0  0  0
140358  1  0  0  0  0
141359  1  0  0  0  0
142360  1  0  0  0  0
143361  1  0  0  0  0
144362  1  0  0  0  0
145363  1  0  0  0  0
146364  1  0  0  0  0
147365  1  0  0  0  0
148366  1  0  0  0  0
149367  1  0  0  0  0
150368  1  0  0  0  0
370151  1  6  0  0  0
152369  1  0  0  0  0
153371  1  0  0  0  0
154403  1  0  0  0  0
406154  1  1  0  0  0
155372  1  0  0  0  0
156373  1  0  0  0  0
374157  1  6  0  0  0
158375  1  0  0  0  0
159376  1  0  0  0  0
160377  1  0  0  0  0
161378  1  0  0  0  0
162379  1  0  0  0  0
163380  1  0  0  0  0
164382  1  0  0  0  0
165383  1  0  0  0  0
166388  1  0  0  0  0
167389  1  0  0  0  0
168390  1  0  0  0  0
169391  1  0  0  0  0
392170  1  6  0  0  0
394171  1  6  0  0  0
172395  1  0  0  0  0
173396  1  0  0  0  0
174406  1  0  0  0  0
174413  1  0  0  0  0
397175  1  1  0  0  0
398176  1  1  0  0  0
177399  1  0  0  0  0
178400  1  0  0  0  0
179407  1  0  0  0  0
179416  1  0  0  0  0
180404  1  0  0  0  0
181405  1  0  0  0  0
408182  1  1  0  0  0
183409  1  0  0  0  0
184410  1  0  0  0  0
411185  1  1  0  0  0
412186  1  6  0  0  0
414187  1  6  0  0  0
415188  1  1  0  0  0
189417  1  0  0  0  0
190418  1  0  0  0  0
191419  1  0  0  0  0
192220  1  0  0  0  0
192249  1  0  0  0  0
193221  1  0  0  0  0
193248  1  0  0  0  0
194222  1  0  0  0  0
194251  1  0  0  0  0
195223  1  0  0  0  0
195250  1  0  0  0  0
196224  1  0  0  0  0
196253  1  0  0  0  0
197225  1  0  0  0  0
197252  1  0  0  0  0
198226  1  0  0  0  0
198255  1  0  0  0  0
199227  1  0  0  0  0
199254  1  0  0  0  0
200228  1  0  0  0  0
200257  1  0  0  0  0
201229  1  0  0  0  0
201256  1  0  0  0  0
202230  1  0  0  0  0
202259  1  0  0  0  0
203231  1  0  0  0  0
203258  1  0  0  0  0
204232  1  0  0  0  0
204261  1  0  0  0  0
205233  1  0  0  0  0
205260  1  0  0  0  0
206234  1  0  0  0  0
206263  1  0  0  0  0
207235  1  0  0  0  0
207262  1  0  0  0  0
208236  1  0  0  0  0
208265  1  0  0  0  0
209237  1  0  0  0  0
209264  1  0  0  0  0
210238  1  0  0  0  0
210280  1  0  0  0  0
211239  1  0  0  0  0
211274  1  0  0  0  0
212240  1  0  0  0  0
212289  1  0  0  0  0
213241  1  0  0  0  0
213286  1  0  0  0  0
214242  1  0  0  0  0
214297  1  0  0  0  0
215243  1  0  0  0  0
215291  1  0  0  0  0
216246  1  0  0  0  0
216321  1  0  0  0  0
217247  1  0  0  0  0
217316  1  0  0  0  0
218293  1  0  0  0  0
218335  1  0  0  0  0
219294  1  0  0  0  0
219328  1  0  0  0  0
220266  1  0  0  0  0
221267  1  0  0  0  0
222268  1  0  0  0  0
223269  1  0  0  0  0
224270  1  0  0  0  0
225271  1  0  0  0  0
226272  1  0  0  0  0
227273  1  0  0  0  0
228275  1  0  0  0  0
229276  1  0  0  0  0
230277  1  0  0  0  0
231278  1  0  0  0  0
232279  1  0  0  0  0
233281  1  0  0  0  0
234282  1  0  0  0  0
235283  1  0  0  0  0
236284  1  0  0  0  0
237285  1  0  0  0  0
238287  1  0  0  0  0
239288  1  0  0  0  0
240290  1  0  0  0  0
241292  1  0  0  0  0
242310  1  0  0  0  0
243311  1  0  0  0  0
244329  1  0  0  0  0
244341  1  0  0  0  0
245330  1  0  0  0  0
245338  1  0  0  0  0
246322  1  0  0  0  0
247323  1  0  0  0  0
266295  1  0  0  0  0
267296  1  0  0  0  0
268298  1  0  0  0  0
269299  1  0  0  0  0
270300  1  0  0  0  0
271301  1  0  0  0  0
272302  1  0  0  0  0
273303  1  0  0  0  0
275304  1  0  0  0  0
276305  1  0  0  0  0
277306  1  0  0  0  0
278307  1  0  0  0  0
279308  1  0  0  0  0
281309  1  0  0  0  0
282312  1  0  0  0  0
283313  1  0  0  0  0
284314  1  0  0  0  0
285315  1  0  0  0  0
287317  1  0  0  0  0
288318  1  0  0  0  0
290319  1  0  0  0  0
292320  1  0  0  0  0
293333  1  0  0  0  0
294334  1  0  0  0  0
295357  1  1  0  0  0
296358  1  1  0  0  0
298359  1  1  0  0  0
299360  1  1  0  0  0
300361  1  6  0  0  0
301362  1  6  0  0  0
302363  1  1  0  0  0
303364  1  1  0  0  0
304365  1  6  0  0  0
305366  1  6  0  0  0
306367  1  1  0  0  0
307368  1  1  0  0  0
308369  1  6  0  0  0
309371  1  6  0  0  0
310326  1  0  0  0  0
311327  1  0  0  0  0
312372  1  1  0  0  0
313373  1  1  0  0  0
314375  1  6  0  0  0
315376  1  6  0  0  0
317377  1  6  0  0  0
318378  1  6  0  0  0
319379  1  1  0  0  0
320380  1  6  0  0  0
322331  1  0  0  0  0
323332  1  0  0  0  0
324342  1  0  0  0  0
324351  1  0  0  0  0
325343  1  0  0  0  0
325348  1  0  0  0  0
326382  1  6  0  0  0
327383  1  6  0  0  0
329339  1  0  0  0  0
330340  1  0  0  0  0
331388  1  1  0  0  0
332389  1  1  0  0  0
333336  1  0  0  0  0
334337  1  0  0  0  0
336390  1  6  0  0  0
337391  1  6  0  0  0
339344  1  0  0  0  0
340345  1  0  0  0  0
342349  1  0  0  0  0
343350  1  0  0  0  0
344395  1  6  0  0  0
345396  1  1  0  0  0
346354  1  0  0  0  0
346386  1  0  0  0  0
347355  1  0  0  0  0
347356  1  0  0  0  0
349352  1  0  0  0  0
350353  1  0  0  0  0
352399  1  6  0  0  0
353400  1  6  0  0  0
354370  1  0  0  0  0
355374  1  0  0  0  0
370381  1  0  0  0  0
374384  1  0  0  0  0
381404  1  1  0  0  0
384405  1  1  0  0  0
385392  1  0  0  0  0
385403  1  0  0  0  0
387393  1  0  0  0  0
387394  1  0  0  0  0
392397  1  0  0  0  0
394398  1  0  0  0  0
397401  1  0  0  0  0
398402  1  0  0  0  0
401409  1  6  0  0  0
402410  1  6  0  0  0
406408  1  0  0  0  0
406417  1  0  0  0  0
407411  1  0  0  0  0
408412  1  0  0  0  0
411414  1  0  0  0  0
412413  1  0  0  0  0
413418  1  1  0  0  0
414415  1  0  0  0  0
415416  1  0  0  0  0
416419  1  6  0  0  0
M  END
> <DATABASE_ID>
DB00638

> <DATABASE_NAME>
drugbank

> <SMILES>
OC[C@H]1O[C@@](CO)(OC[C@@]2(OC[C@@]3(OC[C@@]4(OC[C@@]5(OC[C@@]6(OC[C@@]7(OC[C@@]8(OC[C@@]9(OC[C@@]%10(OC[C@@]%11(OC[C@@]%12(OC[C@@]%13(OC[C@@]%14(OC[C@@]%15(OC[C@@]%16(OC[C@@]%17(OC[C@@]%18(OC[C@@]%19(OC[C@@]%20(OC[C@@]%21(OC[C@@]%22(OC[C@@]%23(OC[C@@]%24(OC[C@@]%25(OC[C@@]%26(OC[C@@]%27(OC[C@@]%28(OC[C@@]%29(OC[C@@]%30(OC[C@@]%31(OC[C@@]%32(OC[C@@]%33(OC[C@@]%34(OC[C@@]%35(OC[C@@]%36(OC[C@@]%37(O[C@H]%38O[C@H](CO)[C@@H](O)[C@H](O)[C@H]%38O)O[C@H](CO)[C@@H](O)[C@@H]%37O)O[C@H](CO)[C@@H](O)[C@@H]%36O)O[C@H](CO)[C@@H](O)[C@@H]%35O)O[C@H](CO)[C@@H](O)[C@@H]%34O)O[C@H](CO)[C@@H](O)[C@@H]%33O)O[C@H](CO)[C@@H](O)[C@@H]%32O)O[C@H](CO)[C@@H](O)[C@@H]%31O)O[C@H](CO)[C@@H](O)[C@@H]%30O)O[C@H](CO)[C@@H](O)[C@@H]%29O)O[C@H](CO)[C@@H](O)[C@@H]%28O)O[C@H](CO)[C@@H](O)[C@@H]%27O)O[C@H](CO)[C@@H](O)[C@@H]%26O)O[C@H](CO)[C@@H](O)[C@@H]%25O)O[C@H](CO)[C@@H](O)[C@@H]%24O)O[C@H](CO)[C@@H](O)[C@@H]%23O)O[C@H](CO)[C@@H](O)[C@@H]%22O)O[C@H](CO)[C@@H](O)[C@@H]%21O)O[C@H](CO)[C@@H](O)[C@@H]%20O)O[C@H](CO)[C@@H](O)[C@@H]%19O)O[C@H](CO)[C@@H](O)[C@@H]%18O)O[C@H](CO)[C@@H](O)[C@@H]%17O)O[C@H](CO)[C@@H](O)[C@@H]%16O)O[C@H](CO)[C@@H](O)[C@@H]%15O)O[C@H](CO)[C@@H](O)[C@@H]%14O)O[C@H](CO)[C@@H](O)[C@@H]%13O)O[C@H](CO)[C@@H](O)[C@@H]%12O)O[C@H](CO)[C@@H](O)[C@@H]%11O)O[C@H](CO)[C@@H](O)[C@@H]%10O)O[C@H](CO)[C@@H](O)[C@@H]9O)O[C@H](CO)[C@@H](O)[C@@H]8O)O[C@H](CO)[C@@H](O)[C@@H]7O)O[C@H](CO)[C@@H](O)[C@@H]6O)O[C@H](CO)[C@@H](O)[C@@H]5O)O[C@H](CO)[C@@H](O)[C@@H]4O)O[C@H](CO)[C@@H](O)[C@@H]3O)O[C@H](CO)[C@@H](O)[C@@H]2O)[C@@H](O)[C@@H]1O

> <INCHI_IDENTIFIER>
InChI=1S/C228H382O191/c229-1-76-114(268)152(306)153(307)191(381-76)419-228(190(344)151(305)113(38-266)418-228)75-380-227(189(343)150(304)112(37-265)417-227)74-379-226(188(342)149(303)111(36-264)416-226)73-378-225(187(341)148(302)110(35-263)415-225)72-377-224(186(340)147(301)109(34-262)414-224)71-376-223(185(339)146(300)108(33-261)413-223)70-375-222(184(338)145(299)107(32-260)412-222)69-374-221(183(337)144(298)106(31-259)411-221)68-373-220(182(336)143(297)105(30-258)410-220)67-372-219(181(335)142(296)104(29-257)409-219)66-371-218(180(334)141(295)103(28-256)408-218)65-370-217(179(333)140(294)102(27-255)407-217)64-369-216(178(332)139(293)101(26-254)406-216)63-368-215(177(331)138(292)100(25-253)405-215)62-367-214(176(330)137(291)99(24-252)404-214)61-366-213(175(329)136(290)98(23-251)403-213)60-365-212(174(328)135(289)97(22-250)402-212)59-364-211(173(327)134(288)96(21-249)401-211)58-363-210(172(326)133(287)95(20-248)400-210)57-362-209(171(325)132(286)94(19-247)399-209)56-361-208(170(324)131(285)93(18-246)398-208)55-360-207(169(323)130(284)92(17-245)397-207)54-359-206(168(322)129(283)91(16-244)396-206)53-358-205(167(321)128(282)90(15-243)395-205)52-357-204(166(320)127(281)89(14-242)394-204)51-356-203(165(319)126(280)88(13-241)393-203)50-355-202(164(318)125(279)87(12-240)392-202)49-354-201(163(317)124(278)86(11-239)391-201)48-353-200(162(316)123(277)85(10-238)390-200)47-352-199(161(315)122(276)84(9-237)389-199)46-351-198(160(314)121(275)83(8-236)388-198)45-350-197(159(313)120(274)82(7-235)387-197)44-349-196(158(312)119(273)81(6-234)386-196)43-348-195(157(311)118(272)80(5-233)385-195)42-347-194(156(310)117(271)79(4-232)384-194)41-346-193(155(309)116(270)78(3-231)383-193)40-345-192(39-267)154(308)115(269)77(2-230)382-192/h76-191,229-344H,1-75H2/t76-,77-,78-,79-,80-,81-,82-,83-,84-,85-,86-,87-,88-,89-,90-,91-,92-,93-,94-,95-,96-,97-,98-,99-,100-,101-,102-,103-,104-,105-,106-,107-,108-,109-,110-,111-,112-,113-,114-,115-,116-,117-,118-,119-,120-,121-,122-,123-,124-,125-,126-,127-,128-,129-,130-,131-,132-,133-,134-,135-,136-,137-,138-,139-,140-,141-,142-,143-,144-,145-,146-,147-,148-,149-,150-,151-,152+,153-,154+,155+,156+,157+,158+,159+,160+,161+,162+,163+,164+,165+,166+,167+,168+,169+,170+,171+,172+,173+,174+,175+,176+,177+,178+,179+,180+,181+,182+,183+,184+,185+,186+,187+,188+,189+,190+,191-,192-,193-,194-,195-,196-,197-,198-,199-,200-,201-,202-,203-,204-,205-,206-,207-,208-,209-,210-,211-,212-,213-,214-,215-,216-,217-,218-,219-,220-,221-,222-,223-,224-,225-,226-,227-,228+/m1/s1

> <INCHI_KEY>
JYJIGFIDKWBXDU-MNNPPOADSA-N

> <FORMULA>
C228H382O191

> <MOLECULAR_WEIGHT>
6179.3581

> <EXACT_MASS>
6176.017855026

> <JCHEM_ACCEPTOR_COUNT>
191

> <JCHEM_BIOAVAILABILITY>
0

> <JCHEM_DONOR_COUNT>
116

> <JCHEM_FORMAL_CHARGE>
0

> <JCHEM_GHOSE_FILTER>
0

> <JCHEM_IUPAC>
(2R,3R,4S,5S,6R)-2-{[(2S,3S,4S,5R)-2-({[(2R,3S,4S,5R)-2-({[(2R,3S,4S,5R)-2-({[(2R,3S,4S,5R)-2-({[(2R,3S,4S,5R)-2-({[(2R,3S,4S,5R)-2-({[(2R,3S,4S,5R)-2-({[(2R,3S,4S,5R)-2-({[(2R,3S,4S,5R)-2-({[(2R,3S,4S,5R)-2-({[(2R,3S,4S,5R)-2-({[(2R,3S,4S,5R)-2-({[(2R,3S,4S,5R)-2-({[(2R,3S,4S,5R)-2-({[(2R,3S,4S,5R)-2-({[(2R,3S,4S,5R)-2-({[(2R,3S,4S,5R)-2-({[(2R,3S,4S,5R)-2-({[(2R,3S,4S,5R)-2-({[(2R,3S,4S,5R)-2-({[(2R,3S,4S,5R)-2-({[(2R,3S,4S,5R)-2-({[(2R,3S,4S,5R)-2-({[(2R,3S,4S,5R)-2-({[(2R,3S,4S,5R)-2-({[(2R,3S,4S,5R)-2-({[(2R,3S,4S,5R)-2-({[(2R,3S,4S,5R)-2-({[(2R,3S,4S,5R)-2-({[(2R,3S,4S,5R)-2-({[(2R,3S,4S,5R)-2-({[(2R,3S,4S,5R)-2-({[(2R,3S,4S,5R)-2-({[(2R,3S,4S,5R)-2-({[(2R,3S,4S,5R)-2-({[(2R,3S,4S,5R)-2-({[(2R,3S,4S,5R)-3,4-dihydroxy-2,5-bis(hydroxymethyl)oxolan-2-yl]oxy}methyl)-3,4-dihydroxy-5-(hydroxymethyl)oxolan-2-yl]oxy}methyl)-3,4-dihydroxy-5-(hydroxymethyl)oxolan-2-yl]oxy}methyl)-3,4-dihydroxy-5-(hydroxymethyl)oxolan-2-yl]oxy}methyl)-3,4-dihydroxy-5-(hydroxymethyl)oxolan-2-yl]oxy}methyl)-3,4-dihydroxy-5-(hydroxymethyl)oxolan-2-yl]oxy}methyl)-3,4-dihydroxy-5-(hydroxymethyl)oxolan-2-yl]oxy}methyl)-3,4-dihydroxy-5-(hydroxymethyl)oxolan-2-yl]oxy}methyl)-3,4-dihydroxy-5-(hydroxymethyl)oxolan-2-yl]oxy}methyl)-3,4-dihydroxy-5-(hydroxymethyl)oxolan-2-yl]oxy}methyl)-3,4-dihydroxy-5-(hydroxymethyl)oxolan-2-yl]oxy}methyl)-3,4-dihydroxy-5-(hydroxymethyl)oxolan-2-yl]oxy}methyl)-3,4-dihydroxy-5-(hydroxymethyl)oxolan-2-yl]oxy}methyl)-3,4-dihydroxy-5-(hydroxymethyl)oxolan-2-yl]oxy}methyl)-3,4-dihydroxy-5-(hydroxymethyl)oxolan-2-yl]oxy}methyl)-3,4-dihydroxy-5-(hydroxymethyl)oxolan-2-yl]oxy}methyl)-3,4-dihydroxy-5-(hydroxymethyl)oxolan-2-yl]oxy}methyl)-3,4-dihydroxy-5-(hydroxymethyl)oxolan-2-yl]oxy}methyl)-3,4-dihydroxy-5-(hydroxymethyl)oxolan-2-yl]oxy}methyl)-3,4-dihydroxy-5-(hydroxymethyl)oxolan-2-yl]oxy}methyl)-3,4-dihydroxy-5-(hydroxymethyl)oxolan-2-yl]oxy}methyl)-3,4-dihydroxy-5-(hydroxymethyl)oxolan-2-yl]oxy}methyl)-3,4-dihydroxy-5-(hydroxymethyl)oxolan-2-yl]oxy}methyl)-3,4-dihydroxy-5-(hydroxymethyl)oxolan-2-yl]oxy}methyl)-3,4-dihydroxy-5-(hydroxymethyl)oxolan-2-yl]oxy}methyl)-3,4-dihydroxy-5-(hydroxymethyl)oxolan-2-yl]oxy}methyl)-3,4-dihydroxy-5-(hydroxymethyl)oxolan-2-yl]oxy}methyl)-3,4-dihydroxy-5-(hydroxymethyl)oxolan-2-yl]oxy}methyl)-3,4-dihydroxy-5-(hydroxymethyl)oxolan-2-yl]oxy}methyl)-3,4-dihydroxy-5-(hydroxymethyl)oxolan-2-yl]oxy}methyl)-3,4-dihydroxy-5-(hydroxymethyl)oxolan-2-yl]oxy}methyl)-3,4-dihydroxy-5-(hydroxymethyl)oxolan-2-yl]oxy}methyl)-3,4-dihydroxy-5-(hydroxymethyl)oxolan-2-yl]oxy}methyl)-3,4-dihydroxy-5-(hydroxymethyl)oxolan-2-yl]oxy}methyl)-3,4-dihydroxy-5-(hydroxymethyl)oxolan-2-yl]oxy}methyl)-3,4-dihydroxy-5-(hydroxymethyl)oxolan-2-yl]oxy}methyl)-3,4-dihydroxy-5-(hydroxymethyl)oxolan-2-yl]oxy}-6-(hydroxymethyl)oxane-3,4,5-triol

> <JCHEM_LOGP>
-61.995481807666664

> <JCHEM_MDDR_LIKE_RULE>
1

> <JCHEM_NUMBER_OF_RINGS>
38

> <JCHEM_PHYSIOLOGICAL_CHARGE>
0

> <JCHEM_PKA>
11.62734020277158

> <JCHEM_PKA_STRONGEST_ACIDIC>
11.268317034592547

> <JCHEM_PKA_STRONGEST_BASIC>
-4.035800955250559

> <JCHEM_POLAR_SURFACE_AREA>
3038.9300000000026

> <JCHEM_REFRACTIVITY>
1251.3993000000028

> <JCHEM_ROTATABLE_BOND_COUNT>
149

> <JCHEM_RULE_OF_FIVE>
0

> <JCHEM_TRADITIONAL_IUPAC>
inulin

> <JCHEM_VEBER_RULE>
0

> <DRUGBANK_ID>
DB00638

> <SECONDARY_ACCESSION_NUMBERS>
APRD01034

> <DRUG_GROUPS>
approved; investigational; nutraceutical

> <GENERIC_NAME>
Inulin

$$$$

  Mrv1909 05231921202D          

 22 22  0  0  0  0            999 V2000
    0.0000    0.8250    0.0000 C   0  0  0  0  0  0  0  0  0  0  0  0
   -0.7145    0.4125    0.0000 C   0  0  0  0  0  0  0  0  0  0  0  0
    0.7145    0.4125    0.0000 C   0  0  0  0  0  0  0  0  0  0  0  0
    0.7145   -0.4125    0.0000 C   0  0  0  0  0  0  0  0  0  0  0  0
    0.0000   -0.8250    0.0000 C   0  0  0  0  0  0  0  0  0  0  0  0
   -0.7145   -0.4125    0.0000 C   0  0  0  0  0  0  0  0  0  0  0  0
    6.4302    0.4124    0.0000 C   0  0  0  0  0  0  0  0  0  0  0  0
    5.7158    0.8250    0.0000 C   0  0  0  0  0  0  0  0  0  0  0  0
    5.0012    0.4125    0.0000 C   0  0  0  0  0  0  0  0  0  0  0  0
    4.2868    0.8250    0.0000 C   0  0  0  0  0  0  0  0  0  0  0  0
    3.5724    0.4125    0.0000 C   0  0  0  0  0  0  0  0  0  0  0  0
    2.8579    0.8250    0.0000 C   0  0  0  0  0  0  0  0  0  0  0  0
    1.4289    0.8250    0.0000 C   0  0  0  0  0  0  0  0  0  0  0  0
    5.7158    1.6500    0.0000 C   0  0  0  0  0  0  0  0  0  0  0  0
    2.8579    1.6500    0.0000 C   0  0  0  0  0  0  0  0  0  0  0  0
    0.4125    1.5395    0.0000 C   0  0  0  0  0  0  0  0  0  0  0  0
   -0.4125    1.5395    0.0000 C   0  0  0  0  0  0  0  0  0  0  0  0
    2.1434    0.4125    0.0000 C   0  0  0  0  0  0  0  0  0  0  0  0
    1.4289   -0.8250    0.0000 C   0  0  0  0  0  0  0  0  0  0  0  0
    7.1447    0.8249    0.0000 C   0  0  0  0  0  0  0  0  0  0  0  0
    7.1447    1.6500    0.0000 O   0  0  0  0  0  0  0  0  0  0  0  0
    7.8592    0.4124    0.0000 O   0  0  0  0  0  0  0  0  0  0  0  0
  1 16  1  0  0  0  0
  1 17  1  0  0  0  0
  1  2  1  0  0  0  0
  1  3  1  0  0  0  0
  3 13  1  0  0  0  0
  4  3  2  0  0  0  0
 19  4  1  0  0  0  0
  5  4  1  0  0  0  0
  6  5  1  0  0  0  0
  2  6  1  0  0  0  0
  8  7  2  0  0  0  0
  9  8  1  0  0  0  0
 14  8  1  0  0  0  0
 10  9  2  0  0  0  0
 11 10  1  0  0  0  0
 12 11  2  0  0  0  0
 18 12  1  0  0  0  0
 15 12  1  0  0  0  0
 13 18  2  0  0  0  0
  7 20  1  0  0  0  0
 20 21  2  0  0  0  0
 20 22  1  0  0  0  0
M  END
> <DATABASE_ID>
DB00755

> <DATABASE_NAME>
drugbank

> <SMILES>
C\C(\C=C\C1=C(C)CCCC1(C)C)=C/C=C/C(/C)=C/C(O)=O

> <INCHI_IDENTIFIER>
InChI=1S/C20H28O2/c1-15(8-6-9-16(2)14-19(21)22)11-12-18-17(3)10-7-13-20(18,4)5/h6,8-9,11-12,14H,7,10,13H2,1-5H3,(H,21,22)/b9-6+,12-11+,15-8+,16-14+

> <INCHI_KEY>
SHGAZHPCJJPHSC-YCNIQYBTSA-N

> <FORMULA>
C20H28O2

> <MOLECULAR_WEIGHT>
300.442

> <EXACT_MASS>
300.208930142

> <JCHEM_ACCEPTOR_COUNT>
2

> <JCHEM_ATOM_COUNT>
50

> <JCHEM_AVERAGE_POLARIZABILITY>
36.845994315681

> <JCHEM_BIOAVAILABILITY>
1

> <JCHEM_DONOR_COUNT>
1

> <JCHEM_FORMAL_CHARGE>
0

> <JCHEM_GHOSE_FILTER>
1

> <JCHEM_IUPAC>
(2E,4E,6E,8E)-3,7-dimethyl-9-(2,6,6-trimethylcyclohex-1-en-1-yl)nona-2,4,6,8-tetraenoic acid

> <ALOGPS_LOGP>
5.66

> <JCHEM_LOGP>
5.014367711

> <ALOGPS_LOGS>
-4.80

> <JCHEM_MDDR_LIKE_RULE>
0

> <JCHEM_NUMBER_OF_RINGS>
1

> <JCHEM_PHYSIOLOGICAL_CHARGE>
-1

> <JCHEM_PKA_STRONGEST_ACIDIC>
4.757033385475081

> <JCHEM_POLAR_SURFACE_AREA>
37.3

> <JCHEM_REFRACTIVITY>
97.79079999999998

> <JCHEM_ROTATABLE_BOND_COUNT>
5

> <JCHEM_RULE_OF_FIVE>
0

> <ALOGPS_SOLUBILITY>
4.77e-03 g/l

> <JCHEM_TRADITIONAL_IUPAC>
(R)-6-hydroxywarfarin

> <JCHEM_VEBER_RULE>
1

> <DRUGBANK_ID>
DB00755

> <SECONDARY_ACCESSION_NUMBERS>
NUTR00051; APRD00362

> <DRUG_GROUPS>
approved; investigational; nutraceutical

> <GENERIC_NAME>
Tretinoin

> <SYNONYMS>
(all-E)-3,7-Dimethyl-9-(2,6,6-trimethyl-1-cyclohexen-1-yl)-2,4,6,8-nonatetraenoic acid; 3,7-Dimethyl-9-(2,6,6-trimethyl-1-cyclohexene-1-yl)-2,4,6,8-nonatetraenoic acid (ECL); Acide retinoique; all trans Retinoic acid; all trans-Retinoic acid; all-(E)-Retinoic acid; all-trans-beta-Retinoic acid; all-trans-Retinoic acid; all-trans-Tretinoin; all-trans-Vitamin A acid; all-trans-Vitamin A1 acid; ATRA; beta-Retinoic acid; Retinoic acid; Retionic acid; trans-Retinoic acid; Tretin M; Tretinoin; Tretinoina; Trétinoïne; Tretinoinum; Vitamin A acid

> <PRODUCTS>
011010 Niacinamide 4% / Tretinoin 0.025%; 011013 Niacinamide 4% / Tretinoin 0.025%; 011020 Niacinamide 4% / Tretinoin 0.05%; 011021 Niacinamide 4% / Tretinoin 0.05%; 011218 Niacinamide 2% / Spironolactone 5% / Tretinoin 0.025%; 011220 Niacinamide 2% / Spironolactone 5% / Tretinoin 0.05%; 141016 Hydrocortisone 0.5% / Hydroquinone 4% / Tretinoin 0.025%; 141017 Hydrocortisone 0.5% / Hydroquinone 6% / Tretinoin 0.025%; 141060 Hydrocortisone 0.5% / Hydroquinone 4% / Tretinoin 0.025%; 141061 Hydrocortisone 0.5% / Hydroquinone 8% / Tretinoin 0.025%; Altreno; Ascorbyl Palmitate 2% / Hyaluronic Acid Sodium Salt 0.2% / Niacinamide 5% / Tretinoin 0.025%; Atralin; Avita; Benzoyl Peroxide 2.5% / Clindamycin 1% / Niacinamide 2% / Tretinoin 0.025%; Benzoyl Peroxide 2.5%, Clindamycin Phosphate 1%, Niacinamide 2% / Tretinoin 0.05%; Benzoyl Peroxide 5% / Clindamycin 1% / Niacinamide 2% / Spironolactone 2% / Tretinoin 0.025%; Benzoyl Peroxide 5% / Clindamycin 1% / Niacinamide 2% / Spironolactone 2% / Tretinoin 0.05%; Benzoyl Peroxide 5% / Clindamycin 1% / Niacinamide 2% / Tretinoin 0.05%; Benzoyl Peroxide 5% / Clindamycin 1% / Niacinamide 2% / Tretinoin 0.1%; Benzoyl Peroxide 5% / Clindamycin1% / Niacinamide 2% / Tretinoin 0.025%; Benzoyl Peroxide 5% / Niacinamide 2% / Tretinoin 0.025%; Biacna Topical Gel; Cenovia; Clindamycin 1% / Niacinamide 4% / Spironolactone 2% / Tretinoin 0.025%; Clindamycin 1% / Niacinamide 4% / Tretinoin 0.025%; Clindamycin 1% / Niacinamide 4% / Tretinoin 0.05%; Clindamycin 1% / Sodium Sulfacetamide Monohydrate 5% / Tretinoin 0.025%; Clindamycin Phosphate 1.2% and Tretinoin 0.025%; Clindamycin Phosphate and Tretinion; Clindamycin Phosphate and Tretinoin; Dapsone 6% / Niacinamide 2% / Tretinoin 0.025%; Dapsone 8.5% / Niacinamide 2% / Tretinoin 0.025%; Dermapak Plus; Dermawerx Zmt Pak; Desoximetasone 0.05% / Hydroquinone 6% / Tretinoin 0.05%; Dexamethasone Sodium Phosphate 0.1% / Finasteride 0.1% / Minoxidil 5% / Tretinoin 0.025%; Dr. Throwers Hydrotet; Dr. Throwers Pbc No. 1; Finasteride 0.1% / Minoxidil 7% / Tretinoin 0.025%; Fluocinolone Acetonide 0.01% / Minoxidil 5% / Tretinoin 0.025%; Hyaluronic Acid Sodium Salt 0.5% / Hydroquinone 4% / Tretinoin 0.05%; Hyaluronic Acid Sodium Salt 0.5% / Niacinamide 4% / Tretinoin 0.025%; Hyaluronic Acid Sodium Salt 0.5% / Niacinamide 4% / Tretinoin 0.05%; Hyaluronic Acid Sodium Salt 0.5% / Niacinamide 4% / Tretinoin 0.1%; Hydrocortisone 0.5% / Hydroquinone 4% / Tretinoin 0.025%; Hydrocortisone 0.5% / Hydroquinone 6% / Tretinoin 0.025%; Hydrocortisone 0.5% / Hydroquinone 6% / Tretinoin 0.05%; Hydrocortisone 0.5% / Hydroquinone 8% / Tretinoin 0.025%; Hydrocortisone 0.5% / Hydroquinone 8% / Tretinoin 0.05%; Hydrocortisone 1% / Hydroquinone 8% / Tretinoin 0.05%; Hydroquinone 4% / Tretinoin 0.025%; Hydroquinone 4% / Tretinoin 0.025% / Triamcinolone Acetonide 0.025%; Hydroquinone 5% / Tretinoin 0.025% / Triamcinolone Acetonide 0.025%; Hydroquinone 6% / Tretinoin 0.05% / Triamcinolone 0.025%; Hydroquinone 6% /tretinoin 0.05%; Hydroquinone 8% / Tretinoin 0.025%; Hydroquinone 8% / Tretinoin 0.025%.; Imiquimod 5% / Levocetirizine Dihydrochloride 1% / Tretinoin 0.05%; Imiquimod 5% / Salicylic Acid 30% / Tretinoin 0.1%; Imiquimod 5% / Tretinoin 0.025%; Minoxidil 5% / Progesterone 0.1% / Tretinoin 0.025%; Minoxidil 7% / Progesterone 0.1% / Tretinoin 0.025%; Minoxidil 7% / Tretinoin 0.025%; Niacinamide 2% / Spironolactone 5% / Tretinoin 0.025%; Niacinamide 2% / Spironolactone 5% / Tretinoin 0.05%; Niacinamide 4% / Tretinoin 0.025%; Niacinamide 4% / Tretinoin 0.05%; Niacinamide 4% / Tretinoin 0.1%; OLIVIA QUIDO FIRM and FADE I; OLIVIA QUIDO FIRM and FADE II; Obagi; Refissa; Refissa Tretinoin (Emollient); Rejuva-A; Renova; Retin-A; Retin-A MICRO; Retisol-A; Solage; Solagé; Stie Vaa Sol 0.05%; Stieva-A Cream; Stieva-A Gel; Stieva-A Solution; Stievaa Gel 0.01%; Stievamycin Forte; Stievamycin Mild; Stievamycin Regular; TRETIN-X Cream 0.025%; TRETIN-X Cream 0.05%; TRETIN-X Cream 0.1%; TRETIN-X Gel 0.01%; TRETIN-X Gel 0.025%; Tretin-X; Tretin.x; TretinX; Tretinoin; Tretinoin (Emollient); Tretinoin Cream; Tretinoin Gel; Tretinoin Gel Microsphere; Tretinopak; Tri-luma; Veltin; Vesanoid; Vitamin A Acid; Vitamin A Acid 0.01% Cream; Vitamin A Acid 0.025% Cream; Vitamin A Acid 0.05% Cream; Vitamin A Acid 0.1% Cream; Vitinoin - Crm 0.025%; Vitinoin - Crm 0.05%; Vitinoin - Crm 0.1%; Vitinoin Gel - 0.025%; Ziana

> <INTERNATIONAL_BRANDS>
Aberel; Aberela; Airol; Dermairol; Eudyna; Kétrel; Sotret; Stieva-A; Vitinoin

$$$$

  Mrv1652309231722062D          

 17 18  0  0  0  0            999 V2000
    4.5615   -4.9343    0.0000 C   0  0  0  0  0  0  0  0  0  0  0  0
    3.8470   -4.5218    0.0000 C   0  0  0  0  0  0  0  0  0  0  0  0
    5.2760   -3.6968    0.0000 C   0  0  0  0  0  0  0  0  0  0  0  0
    5.2760   -4.5218    0.0000 C   0  0  0  0  0  0  0  0  0  0  0  0
    4.5615   -3.2843    0.0000 C   0  0  0  0  0  0  0  0  0  0  0  0
    3.8470   -3.6968    0.0000 C   0  0  0  0  0  0  0  0  0  0  0  0
    6.0605   -4.7767    0.0000 N   0  0  0  0  0  0  0  0  0  0  0  0
    6.5454   -4.1093    0.0000 C   0  0  0  0  0  0  0  0  0  0  0  0
    7.1224   -2.4857    0.0000 C   0  0  0  0  0  0  0  0  0  0  0  0
    6.0605   -3.4419    0.0000 C   0  0  0  0  0  0  0  0  0  0  0  0
    6.3154   -2.6573    0.0000 C   0  0  0  0  0  0  0  0  0  0  0  0
    8.1843   -1.5297    0.0000 C   0  0  0  0  0  0  0  0  0  0  0  0
    7.3773   -1.7012    0.0000 N   0  0  0  0  0  0  0  0  0  0  0  0
    8.7363   -2.1427    0.0000 O   0  0  0  0  0  0  0  0  0  0  0  0
    8.4393   -0.7450    0.0000 C   0  0  0  0  0  0  0  0  0  0  0  0
    3.1326   -3.2843    0.0000 O   0  0  0  0  0  0  0  0  0  0  0  0
    2.4181   -3.6968    0.0000 C   0  0  0  0  0  0  0  0  0  0  0  0
  2  1  1  0  0  0  0
 10  3  1  0  0  0  0
  1  4  2  0  0  0  0
  4  3  1  0  0  0  0
  4  7  1  0  0  0  0
  5  3  2  0  0  0  0
  6  5  1  0  0  0  0
  2  6  2  0  0  0  0
 16  6  1  0  0  0  0
  8  7  1  0  0  0  0
 10  8  2  0  0  0  0
 13  9  1  0  0  0  0
  9 11  1  0  0  0  0
 11 10  1  0  0  0  0
 13 12  1  0  0  0  0
 14 12  2  0  0  0  0
 15 12  1  0  0  0  0
 16 17  1  0  0  0  0
M  END
> <DATABASE_ID>
DB01065

> <DATABASE_NAME>
drugbank

> <SMILES>
COC1=CC=C2NC=C(CCNC(C)=O)C2=C1

> <INCHI_IDENTIFIER>
InChI=1S/C13H16N2O2/c1-9(16)14-6-5-10-8-15-13-4-3-11(17-2)7-12(10)13/h3-4,7-8,15H,5-6H2,1-2H3,(H,14,16)

> <INCHI_KEY>
DRLFMBDRBRZALE-UHFFFAOYSA-N

> <FORMULA>
C13H16N2O2

> <MOLECULAR_WEIGHT>
232.2783

> <EXACT_MASS>
232.121177766

> <JCHEM_ACCEPTOR_COUNT>
2

> <JCHEM_ATOM_COUNT>
33

> <JCHEM_AVERAGE_POLARIZABILITY>
25.649878848425523

> <JCHEM_BIOAVAILABILITY>
1

> <JCHEM_DONOR_COUNT>
2

> <JCHEM_FORMAL_CHARGE>
0

> <JCHEM_GHOSE_FILTER>
1

> <JCHEM_IUPAC>
N-[2-(5-methoxy-1H-indol-3-yl)ethyl]acetamide

> <ALOGPS_LOGP>
1.42

> <JCHEM_LOGP>
1.1476127873333333

> <ALOGPS_LOGS>
-3.21

> <JCHEM_MDDR_LIKE_RULE>
0

> <JCHEM_NUMBER_OF_RINGS>
2

> <JCHEM_PHYSIOLOGICAL_CHARGE>
0

> <JCHEM_PKA>
16.59127620174317

> <JCHEM_PKA_STRONGEST_ACIDIC>
15.795496949109147

> <JCHEM_PKA_STRONGEST_BASIC>
-1.568617764839225

> <JCHEM_POLAR_SURFACE_AREA>
54.120000000000005

> <JCHEM_REFRACTIVITY>
66.2799

> <JCHEM_ROTATABLE_BOND_COUNT>
4

> <JCHEM_RULE_OF_FIVE>
1

> <ALOGPS_SOLUBILITY>
1.43e-01 g/l

> <JCHEM_TRADITIONAL_IUPAC>
melatonin

> <JCHEM_VEBER_RULE>
0

> <DRUGBANK_ID>
DB01065

> <SECONDARY_ACCESSION_NUMBERS>
APRD00742; DB08189

> <DRUG_GROUPS>
approved; nutraceutical; vet_approved

> <GENERIC_NAME>
Melatonin

> <SYNONYMS>
5-methoxy-N-acetyltryptamine; Melatonin; Melatonina; Mélatonine; N-[2-(5-methoxyindol-3-yl)ethyl]acetamide; N-Acetyl-5-methoxytryptamine

> <PRODUCTS>
Amerix Melatonin; Circadin; Hypnosom; Medi-doze Rx Sleep Aid; Medi-doze Sleep Aid; Melatonin; Melatonin Rapid Release Gelcaps 10 mg; Melatonin Rapid Release Gelcaps 5 mg; Safrel Melatonin

> <INTERNATIONAL_BRANDS>
Mela-T; Melatol; Melatonin; Nature'S Harmony; Revital Melatonin; Rx Balance; Sleep Right; Vivitas

$$$$

  Mrv0541 02231215232D          

 17 18  0  0  1  0            999 V2000
    5.9370   -0.8250    0.0000 O   0  0  0  0  0  0  0  0  0  0  0  0
    5.9370    1.6500    0.0000 O   0  0  0  0  0  0  0  0  0  0  0  0
    7.3659   -0.8250    0.0000 O   0  0  0  0  0  0  0  0  0  0  0  0
    5.2224   -0.4125    0.0000 C   0  0  0  0  0  0  0  0  0  0  0  0
    5.2224    0.4125    0.0000 C   0  0  0  0  0  0  0  0  0  0  0  0
    4.5080   -0.8250    0.0000 C   0  0  0  0  0  0  0  0  0  0  0  0
    1.6500   -0.8250    0.0000 C   0  0  0  0  0  0  0  0  0  0  0  0
    5.9370    0.8250    0.0000 C   0  0  0  0  0  0  0  0  0  0  0  0
    3.0791   -0.8250    0.0000 C   0  0  0  0  0  0  0  0  0  0  0  0
    1.6500   -1.6500    0.0000 C   0  0  0  0  0  0  0  0  0  0  0  0
    3.7935   -0.4125    0.0000 C   0  0  0  0  0  0  0  0  0  0  0  0
    2.3645   -0.4125    0.0000 C   0  0  0  0  0  0  0  0  0  0  0  0
    3.0791   -1.6500    0.0000 C   0  0  0  0  0  0  0  0  0  0  0  0
    2.3645   -2.0625    0.0000 C   0  0  0  0  0  0  0  0  0  0  0  0
    6.6515    0.4125    0.0000 C   0  0  0  0  0  0  0  0  0  0  0  0
    6.6515   -0.4125    0.0000 C   0  0  0  0  0  0  0  0  0  0  0  0
    6.6515    2.0625    0.0000 C   0  0  0  0  0  0  0  0  0  0  0  0
  1  4  1  0  0  0  0
  1 16  1  0  0  0  0
  2  8  1  0  0  0  0
  2 17  1  0  0  0  0
  3 16  2  0  0  0  0
  4  5  1  0  0  0  0
  4  6  1  0  0  0  0
  5  8  1  0  0  0  0
  6 11  2  0  0  0  0
  7 10  1  0  0  0  0
  7 12  1  0  0  0  0
  8 15  2  0  0  0  0
  9 11  1  0  0  0  0
  9 12  2  0  0  0  0
  9 13  1  0  0  0  0
 10 14  1  0  0  0  0
 13 14  2  0  0  0  0
 15 16  1  0  0  0  0
M  END
> <DATABASE_ID>
DB01322

> <DATABASE_NAME>
drugbank

> <SMILES>
COC1=CC(=O)OC(C1)\C=C\C1=CCCC=C1

> <INCHI_IDENTIFIER>
InChI=1S/C14H16O3/c1-16-13-9-12(17-14(15)10-13)8-7-11-5-3-2-4-6-11/h3,5-8,10,12H,2,4,9H2,1H3/b8-7+

> <INCHI_KEY>
OMNGEVNATYFZGG-BQYQJAHWSA-N

> <FORMULA>
C14H16O3

> <MOLECULAR_WEIGHT>
232.275

> <EXACT_MASS>
232.109944378

> <JCHEM_ACCEPTOR_COUNT>
2

> <JCHEM_AVERAGE_POLARIZABILITY>
25.664280595935725

> <JCHEM_BIOAVAILABILITY>
1

> <JCHEM_DONOR_COUNT>
0

> <JCHEM_FORMAL_CHARGE>
0

> <JCHEM_GHOSE_FILTER>
1

> <JCHEM_IUPAC>
6-[(E)-2-(cyclohexa-1,5-dien-1-yl)ethenyl]-4-methoxy-5,6-dihydro-2H-pyran-2-one

> <ALOGPS_LOGP>
2.74

> <JCHEM_LOGP>
2.050274421666667

> <ALOGPS_LOGS>
-3.57

> <JCHEM_MDDR_LIKE_RULE>
0

> <JCHEM_NUMBER_OF_RINGS>
2

> <JCHEM_PHYSIOLOGICAL_CHARGE>
0

> <JCHEM_PKA_STRONGEST_ACIDIC>
16.54852809021194

> <JCHEM_PKA_STRONGEST_BASIC>
-4.788416686842659

> <JCHEM_POLAR_SURFACE_AREA>
35.53

> <JCHEM_REFRACTIVITY>
70.37970000000001

> <JCHEM_ROTATABLE_BOND_COUNT>
3

> <JCHEM_RULE_OF_FIVE>
1

> <ALOGPS_SOLUBILITY>
6.32e-02 g/l

> <JCHEM_TRADITIONAL_IUPAC>
kavapyrone

> <JCHEM_VEBER_RULE>
1

> <DRUGBANK_ID>
DB01322

> <DRUG_GROUPS>
approved; investigational; nutraceutical

> <GENERIC_NAME>
Kava

$$$$

  Mrv1718007121813002D          

  1  0  0  0  0  0            999 V2000
    0.0000    0.0000    0.0000 Ca  0  0  0  0  0 15  0  0  0  0  0  0
M  END
> <DATABASE_ID>
DB01373

> <DATABASE_NAME>
drugbank

> <SMILES>
[Ca]

> <INCHI_IDENTIFIER>
InChI=1S/Ca

> <INCHI_KEY>
OYPRJOBELJOOCE-UHFFFAOYSA-N

> <FORMULA>
Ca

> <MOLECULAR_WEIGHT>
40.078

> <EXACT_MASS>
39.9625909

> <JCHEM_ACCEPTOR_COUNT>
0

> <JCHEM_ATOM_COUNT>
1

> <JCHEM_AVERAGE_POLARIZABILITY>
1.7784

> <JCHEM_BIOAVAILABILITY>
1

> <JCHEM_DONOR_COUNT>
0

> <JCHEM_FORMAL_CHARGE>
0

> <JCHEM_GHOSE_FILTER>
0

> <JCHEM_IUPAC>
calcium

> <ALOGPS_LOGP>
-1.31

> <JCHEM_LOGP>
-0.57

> <ALOGPS_LOGS>
1.08

> <JCHEM_MDDR_LIKE_RULE>
0

> <JCHEM_NUMBER_OF_RINGS>
0

> <JCHEM_PHYSIOLOGICAL_CHARGE>
0

> <JCHEM_POLAR_SURFACE_AREA>
0.0

> <JCHEM_REFRACTIVITY>
0.0

> <JCHEM_ROTATABLE_BOND_COUNT>
0

> <JCHEM_RULE_OF_FIVE>
1

> <ALOGPS_SOLUBILITY>
0.00e+00 g/l

> <JCHEM_TRADITIONAL_IUPAC>
calcium

> <JCHEM_VEBER_RULE>
1

> <DRUGBANK_ID>
DB01373

> <DRUG_GROUPS>
nutraceutical

> <GENERIC_NAME>
Calcium

> <SYNONYMS>
Calcio; Calcium, elemental; Elemental calcium; Kalzium

> <PRODUCTS>
24 Multivitamins + Minerals; 50 Plus Multiple Vitamins & Minerals; 7030 Calcium Gold; 7030 Calcium Premium; A D Calcium Tab; A-D Calcium Cap; A.R.T.H. Away Formula; A/o-26 - Caplet; Act Etidrocal; Acti-cal/mag 2:1 + Zinc and D Caplet; Acti-megascorb Crystals Pwr; Actical Plus Calcium-magnesium-vitamin D3-silicon Chewable; Active Calcium Plus Magnesium, Vitamin D and Silicon; Actonel Plus Calcium; Actonel Sachet Kit; Ad & Calcium Cap; Ad Calcium Cap; Adult Formula 50+; Advanced B & T Formula; Ag-X; Alkadrenergy Tablets; Alsimine W Vitamins A D; Anaplex Tab; Astral C Tab; Avon Nutrivance Soft Calcium Chews With Vitamin D; Avon Vitadvance Multi-kids Complete; B & J Formula Dietary Supplement; B-Nexa; Baisix; Bakanasan Calcium Citrate Powder; Biocalth Calcium Powder; Biocalth Calcium Supplement; Body Rox; Bodysmarts With Calcium; Bseltzer; Buffered Vitamin C Powder With Ca Mg and K; Buffered Vitamin C Pwr W Cal-mag-potassium; C-crystals With Calcium; C. Vit-min Formula; C.H.V. Formula; Cal & Mag Hvp Chel Plus C Potass & Zinc Tab; Cal 500 Tab 500mg; Cal Gel Cap 45mg; Cal M Tab; Cal Mag Drink With Vitamin C; Cal Mag Plus - Tab; Cal Mag Tab; Cal Supp 500; Cal Supp 500 - Tab; Cal-citrus; Cal-mag (one To One) With Potass & Zinc; Cal-mag Citrate Zinc & Vitamin D Tablets; Cal-mag Complete With Zinc, C and D; Cal-mag Plus K, Mn and Zn Caplets; Cal-mag Tablet; Cal-mag Vitamin C and Zinc Tab; Cal-mag With Vitamin D; Cal-mag With Zinc & Vitamin D; Cal/mag 1:1 With Zinc and Vitamin D - Tablet; Cal/mag 2:1 With D; Cal/mag+d; Calburst Calcium 500mg With Vitamin D; Calci A and D Tab; Calci-yum Plus Magnesium + D3; Calcimag Tab; Calcitol; Calcium; Calcium & Magnesium Citrate Plus D With Manganese, Potassium & Zinc; Calcium & Magnesium Plus Potassium & Zinc; Calcium & Magnesium Plus Potassium, Zinc, & Manganese; Calcium & Magnesium Tab; Calcium & Magnesium Tablets; Calcium & Magnesium With Potassium & Zinc; Calcium & Magnesium With Potassium, Zinc, Manganese & Vitamin D; Calcium & Magnesium With Vitamin D; Calcium & Vitamin D; Calcium 250 Mg With Vitamin D; Calcium 350 Mg (calcium Citrate) - Caplet; Calcium 350 Mg (calcium Citrate) Caplet; Calcium 350mg; Calcium 400 With Magnesium - Pwr; Calcium 500 With Vitamin D Tab; Calcium 500 mg; Calcium 500mg With Vitamin D; Calcium 600; Calcium 600 + D; Calcium 600 + D Comprimes; Calcium 600mg + Vit D3 125unit Tab; Calcium 600mg Dietary Supplement; Calcium 650mg; Calcium 650mg Tab; Calcium 650mg With Vitamin D; Calcium A D; Calcium Ascorbate 1000 Mg - Tablet; Calcium Ascorbate Cap 850mg; Calcium Ascorbate Powder; Calcium Ascorbate Tab 550mg; Calcium Caps 400mg; Calcium Caps Plus Magnesium; Calcium Capsules With Magnesium and Vitamin D; Calcium Carbonate; Calcium Carbonate + Vitamin D; Calcium Carbonate 1500mg; Calcium Carbonate Tab; Calcium Carbonate Tablets With Vitamin D; Calcium Chelate Plus Vit D; Calcium Citramate; Calcium Citrate; Calcium Citrate 300mg; Calcium Citrate With Vitamin D; Calcium Citrate and Vitamin D 200mg/160iu; Calcium Complex High Grade; Calcium Et Magnesium Plus Vitamin D; Calcium Et Magnesium Plus Vitamine D/fe/zn; Calcium Et Magnesium Tab; Calcium Gluconate Tablets USP 650 mg; Calcium Lactate 650mg; Calcium Lactate Caps; Calcium Lactate Powder; Calcium Lactate Tab 84.5mg; Calcium Lactate Tablets USP 650 mg; Calcium Liquid; Calcium Liquid Syrup; Calcium Magnesium 1000/500 - Tab; Calcium Magnesium 2:1 Tablets With Vitamin D; Calcium Magnesium Avec Vitamine C; Calcium Magnesium Avec Vitamine D Et Zinc; Calcium Magnesium Sulfur Silicon - Tab; Calcium Magnesium Tab; Calcium Magnesium Tablets Nu Life; Calcium Magnesium With Potassium Tab; Calcium Mg and Zn Capsules With Vitamin D; Calcium Phosphorus & Vitamin D; Calcium Plus; Calcium Sandoz Syr 110mg/5ml; Calcium Syrup 110mg/5ml; Calcium Tab W Vit D; Calcium With Magnesium and Vitamin D; Calcium With Mg Zn Mn Cu CR Si and Vit. C & D; Calcium With Vitamin D 200 Mg/160 Iu; Calcium With Vitamin D2; Calcium With Vitamins C and D Tab; Calcium and Mag-potass and Zinc Cap; Calcium and Magnesium 1:1 Plus Tablets; Calcium and Magnesium Citrate With Vitamin D; Calcium and Magnesium Citrate and Vitamin D 250mg/125mg/200iu; Calcium and Magnesium Tab; Calcium and Magnesium Tablets; Calcium and Magnesium W Zinc Tab; Calcium and Magnesium With Vitamin D; Calcium and Magnesium With Zinc; Calcium and Vitamin D - Soft Chew; Calcium, Magnesium, Zinc and D; Calcium-magnesium Cap 1:1 W Vitamin D; Calcium-magnesium With K & Zn and Vitamin D3; Calcium/magnesium Drink; Calcium/magnesium Supplement Tablets; Calcium/magnesium/vitamin D - Capsule; Calcor; Calma-D; Calmax; Calplus; Calsan Chewable Tab 500mg; Caltrate 600 Plus D - Tablet; Cavan One; Cavan-EC SOD DHA; Cell-wise; Cell-wise Natural Source; Central-vite 18 Essential; Century Complete; Chela Calmag-100 Plus Zinc D3; Chela Calmag-300 Plus Zinc D3; Chelamins Plus Tab; Chelated Cal-mag(2:1)with Zn Vit.c and D; Chelated Cal/mag/zn With Vitamins; Chelated Calcium Supplement - 150mg Tab; Chelated Calcium and Magnesium Tab; Chelazome Calcium 125mg; Chewable Adult Multivitamins With Minerals; Chewable Cal-mag Chocolate Flavour; Chewable Calcium & Magnesium 2:1 Tablet; Chewable Calcium 500 Mg With Vitamin D 200 Iu; Chewable Calcium Plus Magnesium and Minerals; Chewable Children's Complete Multivitamins With Essential Minerals; Children's Chew Multi & Min Tab; Children's Chewable Calcium (chewable Tablets); Children's Chewable Multi-vitamin Complete With Minerals; Children's Chewable Multivitamin Complete With Minerals; Children's Chewable Multivitamin and Multimineral; Children's Chewable Multivitamins With Minerals; Children's Chewable Multivitamins and Minerals; Children's Chewable Vit and Min Tab; Chromium Gtf + Calcium; Citrate De Calcium Plus Vitamine D Et Zinc; Classic Swiss One 10 Multivitamin and Mineral Tab; Complete Multivitamins and Minerals Tablets Timed Release; Complete Multivitamins and Minerals for Children; Coral Calcium; Coral Calcium Plus Vitamin D; Coral Calcium Plus Vitamin D 210mg/100iu; Derma-force; Dia Cal Cap 500mg; Didrocal; Doctor's Choice Brand for Men; Dol Mite Tab; Dolomite 1280mg; ENA Actimineral A; Earthpals Children's Chewables Multi-vitamin & Mineral Tablets; Eden With Calcium and Vitamin D; Efferlife Calcium 500mg + Vitamin D3 440 Iu + Vitamin C 125mg; Effervescent Vitamin C Powder With Ca and mg; Envirocomplex; Enviroflex - Tab; Essential Vitamins and Minerals; Ester C 500 Tab; Ester C Calcium Ascorbate Cap; Ester C Capsule; Ester C Powder; Ester C Tab Chewable; Ester C Vitamin C and Calcium Pws; Ester-C; Ester-C 500 mg; Ester-C 600 mg; Ester-C 787mg; Ester-C Calcium Ascor Tab; Ester-C Calcium Ascorbate Capsules; Ester-C Calcium Ascorbate Tab; Ester-C Calcium Ascorbate Tablets; Ester-C Powder; Ester-C Tablet; Ester-C Vitamin C With Calcium; Etidrocal; Extra Once A Day; Extra Strength Calcium Antacid Chewable; Fb Formula; Fem Time Tab; Femidause; Feminex 300 Tab; Feminique W Iron and Calcium Tab; Ferrous Sulfate; Flex Capsules; Focalgin B; Folcaps Omega-3; Folgard; For-2; Formula 2025 Tab; Formula 9 Tab; Formula A.R.-th Dietary Supplement; Formula EC; Formula Inf; Formula Int; Formula O-care Vitamin and Mineral Supplement; Formula Osg; Fusion Activator Formula Tab; Fusion PM Formula Tab; G.A.S. Complex; Gellucal Cap 45mg; Gestamine Comprimes; Good Night/pm Formula Tab; Grand Master Formula Tab; Great Calcium; HANTAI 8030 Ca-D3 GOLD; HANTAI 8030 Ca-D3 Premium; Hemarexin Tab; Hi Potency Cal Tab 650mg; Hi Potency Multi Tab; High Potency Multivitamins & Minerals Caplets; Hormodausse Plus Calc Et D Tab; Hsn Formula; Hvp Chelated Cal/mag With Zinc and Vitamins C and D; Hypo Vites Tab; Innersource Tab; Iprical; Isotonix Calcium Plus Formula; J.T. Formula; K.L. Vitamin-mineral; Kanga-V Multivitamins & Minerals; Korea Calcium King; L.G.I.T.; Lactate De Calcium 648 mg; Lactate De Calcium Tab 42.1mg; Leonas Calcium Plus Vitamin D3; Leritone Antistress; Liqui Cal-D; Liquical; Liquid Cal-mag; Liquid Cal/mag Plus D; Liquid Calcium Mg Phosphorus and Vit.d-3; Liquid Calcium With Vitamin D; Liquid Calcium and Magnesium With Vit.d; Liquid Opti-minplex +d; Luna Vitamin and Mineral Bar for Women; Lysamine Diet Supp Amp-tab; M-Natal Plus; Mag/cal 1:1 Capsules W Vitamin D; Magnacal; Magnesium Chloride; Maintain Multiple Vitamin & Minerals; Materna; Materna - Tab; Materna-tab; Maximum Once A Day; Maxine Vitamin and Mineral Supplement; Mega Capsules; Mega Min Capsules; Mega Multiple Minerals; Mega Plex III - Pck; Mega Plex IV - Pck; Mega Vitaminerals; Mega-vim 75 With Beta-carotene - Tablets; Men's; Men's 50+; Men's Biomultiple Vitamin and Mineral Supplement; Menocal Tab; Mid-life Magnacal 2; Milk Calcium With Vitamins C, D, and Phosphorous; Milltrium Senior Vitamin and Mineral Supplement; Min-tran Tab; Mineral Support; Mnps Formula Supplement; Mor-cal Tab 500mg; Mor-vites Tab; Multi #2; Multi Cal Mag Liquid; Multi II IV Vi Tab; Multi Mega Minerals With Vitamin D; Multi Plex I - Tab; Multi Plex II - Tab; Multi Rol; Multi Tabs; Multi Vitamin & Minerals; Multi Vitamin-mineral Formula; Multi Vitamins & Minerals; Multi-actin; Multi-force for Women Tab; Multi-min Electro C Pow Plus B2; Multi-mins Minerals; Multi-vitamins With Minerals; Multicaps; Multimineral Chelates; Multimineral Tablets; Multiminerals; Multipack II; Multiple Mineral Liquid; Multiple Minerals; Multiple Vitamin Plus Minerals Tab; Multiple Vitamins & Minerals Tablets; Multiple Vitamins W Minerals Tab; Multiple Vitamins With Minerals Tablets; Multiple Vitamins and Minerals; Multiple Vitamins and Minerals Tab; Multitabs; Multivitamin & Minerals (iron Free); Multivitamin & Multimineral; Multivitamines Et Mineraux; Multivitamines Et Mineraux Junior Regulier; Multivitamines Et Mineraux Reguliers / Regular Multivitamins and Minerals; Multivitamins and Minerals - Complete; Multivitamins and Minerals Tablets; Multivitamins and Minerals With Betacarotene Tablets; Multivitamins and Minerals for Men; Multivitamins and Minerals for Women; Multivitamins and Minerals for Young Men; Multivitamins and Minerals for Young Women; Multivitamins and Multiminerals Formula Regular Tablet; Multra Plex; Multra With Iron; Mylan-eti-cal Carepac; NESTABS ABC Prenatal Multi-vitamin/Mineral Supplement with DHA/EPA; Nata Komplete; Natavite; Natelle One; Natural Liquid Mineral Supplement; Natural Source Spectrum With Beta Carotene; Neonatal Plus Vitamin; Neonatal Vitamin; Nexa Plus; Nexa Select Rx Prenatal Vitamin with Plant-Based DHA; Ni-C-E-LE Plus; Novo-etidronatecal; Ntp-etidronate Calcium; Nutra Boost; Nutra-clear; Nutravite Calcium Magnesium and Zinc Caps; Nutri-chem Cal Mag; Nutri-chem Calcium Magnesium With D and Zinc; Nutrifer Plus Tablets; Nutrilite Double X; Nutrol-cal Tab 875mg; O Calcium 500mg Plus D Tab; O-Cal FA multivitamin; O-Cal Prenatal Vitamin; O-calcium 250mg Plus D; Olympian Multi Vit Plus Minerals Tab; Omega-3 Rx Complete; One A Day Advance Adults; One A Day Advance Adults 50+; One A Day Advance Fem; One A Day Bone Builder; One A Day Multiple Vit W Minerals; One A Day Tab; One Daily Vitamin and Mineral Dietary Supplement; One-A-day Advance Fem - Tablets; Only One - Tablet; Onyx; Opti-cal Chewable +d Caplet; Orange Flavored Crystal Chews Tab; Organic Minerals Tablet; Orifer F; Os-cal 250 mg; Os-cal 500; Os-cal 500 Chewable Tab 500mg; Os-cal-D 500; Osteo Factors; Osteo Formula; Osteo Formula Tab; Osteo Regime; Osteo Tablets; Osteo-force; Osteo-life; Osteo-plus; Osteocit-D; Osteoligo; Osteoshield; Oyster Shell Calcium with Vitamin D; PMS-risedronate Plus Calcium; Paramettes Adults; Pharmacal 500 Tab 500mg; Phytofortis + Calcium A-D; Pnv-dha; Port A Mins Super Cal-mag 300/150 With Vitamin D3; Port A Mins Super Cal-mag 600/300; Port A Mins Super Calcium 375 With Vitamin D3; Port A Mins Super Calcium 750 With Vitamin D3; Pour Ma Santé; PreFol-DHA; PreNatal Vitamins Plus; Pregvit; Pregvit Folic 4; Pregvit Folic 5; Premel; Premium Prenatal; Premium Prenatal - Tablets; Prenara; Prenatal; Prenatal Formula Tab; Prenatal Supplement - Tab; Prenatal Vi-min; Prenatal Vitamin No 53 Iron Fum Folic Acid Docusate CA DHA; Prenatal Vitamin and Mineral Supplement; Prenatal Vitamin and Mineral Supplement -tab; Prenatal Vitamins and Minerals Tablets; Prenatal and Post Partum Supplement; Prenatvite; Prenatvite Complete; Prenatvite Plus; Prenavite Forte Tablets; Prenavite Tablets; Preplus; Prevencal + D A Croquer 600mg; Prevencal 300 + D A Croquer; Prevencal 500 +d; Prevencal 600 + D Et Fer; Prevencal 600 + D Et Magnesium; Prevencal Tab 500mg; Pure Calcium calcium; Redoxon-cal; Reebok; Regular Strength Calcium Antacid Chew. Tabs; Revitex Ampoules Et Comprimes; Revival 1 Tab; Right Choice P.M. Multi Formula - Caplet; Rolaids Extra Strength Multi-symptom Tablets; Rolaids Extra Strength Tab; Senior Multi One; Silica-calcium With Biotin Capsules; Soluble Calcium Citrate 1200mg; Somarexin and C 1000; Spd Tab; Spectrum 2 Cap; Spectrum Performa Multivitamins and Minerals Tablets; Stom #2; Sub small molecule disinfectant; Super C Crystals W Calcium; Super C-M-K; Super Cal Mag Plus; Super Charged Energy; Super Daily No 2; Super Kids Chewable Multivitamin Multimineral (chewable Tablets); Super Multi; Super Vita Vim Multivitamins and Minerals; Super Vita-vim With Beta-carotene - Tab; Supplement De Vitamines Et Mineraux; Supplements De Vitamines Et Mineraux; Swical D-M - Tab; Swical Extra-fort; Swical-energy 3e Age; Swical-multi; Swiss One; Swiss One Multi Vit & Chel Min Tab; Swiss One Multivitamin and Mineral Caplet; Swiss One Timed Release Tab; Swiss Total One; T-PA Cap; Teva-risedronate/calcium; Tianshi Calcium With Natural Source Vitamin D Tablets; Tianshi Calcium With Natural Source Vitamin E Softgel Capsules; Tianshi Calcium and Vitamin D Chewable Tablets (melon Flavour); Tianshi Calcium and Vitamin D Chewable Tablets (peach Flavour); Tianshi Calcium and Vitamin D Chewable Tablets (strawberry Flavour); Tianshi Vital Powder I; Tianshi Vital Powder II; Tianshi Vital Powder III; Timed Release Ester-C 1000mg; Timed Release Vita-vim Srt; Timed Release and Esterified Vitamin C-500; Total Living Concepts Formula One - Tab; Totalvit Plus; Tri-mins - Cap; Tropicana Calcium & Vitamin C Supplement; Tropicana Calcium Supplement 344 mg; Tropicana Calcium Supplement 393 mg; Tropicana Calcium Supplement 604 mg; Tropicana Calcium and Vitamin C Supplement; Tums 500 Tab; Tums Extra Strength Assorted Tropical Fruit; Tums Ultra Strength Assorted Mint Flavours; Tums Ultra Strength Assorted Tropical Fruit; Tums Ultra Strength Liquid; Tums Ultra Strength Liquid Plus Anti-gas; UltimateCare ONE NF; Usana Calmag Plus Tablets - Tab; Usana Multimineral Tablets; Usana Multimineral Tablets - Tab; Usana Optimizer Actical Plus Calcium-magnesium-vitamin D3-silicon Tablets; V & M Vitamin and Mineral Supplement; VIL-Rx; Vasculine; Vc II; Vege 1 Daily Tab; Vege Swiss One Multivitamin W Chel Mins Tab; Viamon Ampoules Et Comprimes; Vimeral Tab; Vit C W Calc-mag and Potass Powder; Vita - Gl Capsules; Vita Balance 2000; Vita Plex Tab; Vita Vim Multivitamins and Minerals Tab; Vita Vim With Beta Carotene-caplet; Vita-vim - Tab; Vita-vim With Beta-carotene - Tab; Vitaflex Dietary Suplement; Vitafol Caplet; Vitafol OB Caplet; Vitafol-OB Plus DHA Prenatal Supplement Plus DHA; Vitalife - Capsule; Vitality Brand Calcium Plus Tab; Vitamin & Mineral Formula 1 Dietary Supplement; Vitamin C Calcium Pwr; Vitamin C W Chelates Tab; Vitamin C and Calcium Tab; Vitamin D + Calcium Dietary Supplement; Vitamine C Cap 600mg; Vitamines A - D Calcium; Vitaplex; Vyo Cylate - Pwr; Webber Calcium Tab 500mg; Wellness Formula; Women's Biomultiple Vitamin and Mineral Supplement; Women's Change Formula; Women's Formula; Women's Support Tablets; Zingiber

$$$$

  Mrv1909 07102021182D          

  1  0  0  0  0  0            999 V2000
    0.0000    0.0000    0.0000 Mg  0  2  0  0  0  0  0  0  0  0  0  0
M  CHG  1   1   2
M  END
> <DATABASE_ID>
DB01378

> <DATABASE_NAME>
drugbank

> <SMILES>
[Mg++]

> <INCHI_IDENTIFIER>
InChI=1S/Mg/q+2

> <INCHI_KEY>
JLVVSXFLKOJNIY-UHFFFAOYSA-N

> <FORMULA>
Mg

> <MOLECULAR_WEIGHT>
24.305

> <EXACT_MASS>
23.985041898

> <JCHEM_ACCEPTOR_COUNT>
0

> <JCHEM_ATOM_COUNT>
1

> <JCHEM_AVERAGE_NEUTRAL_MICROSPECIES_CHARGE>
2.0

> <JCHEM_AVERAGE_POLARIZABILITY>
1.7784

> <JCHEM_BIOAVAILABILITY>
1

> <JCHEM_DONOR_COUNT>
0

> <JCHEM_FORMAL_CHARGE>
2

> <JCHEM_GHOSE_FILTER>
0

> <JCHEM_IUPAC>
magnesium(2+) ion

> <JCHEM_LOGP>
-0.57

> <JCHEM_MDDR_LIKE_RULE>
0

> <JCHEM_NEUTRAL_CHARGE>
2

> <JCHEM_NUMBER_OF_RINGS>
0

> <JCHEM_PHYSIOLOGICAL_CHARGE>
2

> <JCHEM_PKA>
3.55

> <JCHEM_PKA_STRONGEST_ACIDIC>
3.09

> <JCHEM_POLAR_SURFACE_AREA>
0.0

> <JCHEM_REFRACTIVITY>
0.0

> <JCHEM_ROTATABLE_BOND_COUNT>
0

> <JCHEM_RULE_OF_FIVE>
1

> <JCHEM_TRADITIONAL_IUPAC>
ethane

> <JCHEM_VEBER_RULE>
1

> <DRUGBANK_ID>
DB01378

> <DRUG_GROUPS>
approved; nutraceutical

> <GENERIC_NAME>
Magnesium cation

> <SYNONYMS>
Magnesium ion; Magnesium, ion(Mg2+)

$$$$
1436
  Mrv0541 02231215292D          

 31 33  0  0  1  0            999 V2000
    1.6500   -3.9985    0.0000 O   0  0  0  0  0  0  0  0  0  0  0  0
    4.5080   -3.9985    0.0000 O   0  0  0  0  0  0  0  0  0  0  0  0
    4.5080    0.9517    0.0000 C   0  0  2  0  0  0  0  0  0  0  0  0
    5.2886    1.2030    0.0000 C   0  0  2  0  0  0  0  0  0  0  0  0
    4.5080    0.1266    0.0000 C   0  0  1  0  0  0  0  0  0  0  0  0
    5.7701    0.5391    0.0000 C   0  0  0  0  0  0  0  0  0  0  0  0
    5.2886   -0.1247    0.0000 C   0  0  0  0  0  0  0  0  0  0  0  0
    3.7935    1.3642    0.0000 C   0  0  0  0  0  0  0  0  0  0  0  0
    5.5449    1.9872    0.0000 C   0  0  1  0  0  0  0  0  0  0  0  0
    3.7935   -0.2859    0.0000 C   0  0  0  0  0  0  0  0  0  0  0  0
    4.5080    1.7767    0.0000 C   0  0  0  0  0  0  0  0  0  0  0  0
    3.0791    0.9517    0.0000 C   0  0  0  0  0  0  0  0  0  0  0  0
    3.0791    0.1266    0.0000 C   0  0  0  0  0  0  0  0  0  0  0  0
    6.3522    2.1574    0.0000 C   0  0  0  0  0  0  0  0  0  0  0  0
    4.9939    2.6013    0.0000 C   0  0  0  0  0  0  0  0  0  0  0  0
    3.7935   -1.1109    0.0000 C   0  0  0  0  0  0  0  0  0  0  0  0
    6.6086    2.9416    0.0000 C   0  0  0  0  0  0  0  0  0  0  0  0
    7.4158    3.1117    0.0000 C   0  0  0  0  0  0  0  0  0  0  0  0
    3.0791   -1.5234    0.0000 C   0  0  0  0  0  0  0  0  0  0  0  0
    7.6721    3.8959    0.0000 C   0  0  0  0  0  0  0  0  0  0  0  0
    3.0791   -2.3484    0.0000 C   0  0  0  0  0  0  0  0  0  0  0  0
    2.3645   -2.7609    0.0000 C   0  0  0  0  0  0  0  0  0  0  0  0
    3.7935   -2.7609    0.0000 C   0  0  0  0  0  0  0  0  0  0  0  0
    7.1211    4.5100    0.0000 C   0  0  0  0  0  0  0  0  0  0  0  0
    8.4794    4.0660    0.0000 C   0  0  0  0  0  0  0  0  0  0  0  0
    2.3645   -3.5859    0.0000 C   0  0  2  0  0  0  0  0  0  0  0  0
    3.7935   -3.5859    0.0000 C   0  0  2  0  0  0  0  0  0  0  0  0
    3.0791   -3.9985    0.0000 C   0  0  0  0  0  0  0  0  0  0  0  0
    4.5080   -2.3484    0.0000 C   0  0  0  0  0  0  0  0  0  0  0  0
    5.9406    1.3054    0.0000 H   0  0  0  0  0  0  0  0  0  0  0  0
    4.5779   -0.5297    0.0000 H   0  0  0  0  0  0  0  0  0  0  0  0
 26  1  1  6  0  0  0
 27  2  1  1  0  0  0
  3  4  1  0  0  0  0
  3  5  1  0  0  0  0
  3  8  1  0  0  0  0
  3 11  1  1  0  0  0
  4  6  1  0  0  0  0
  4  9  1  0  0  0  0
  4 30  1  6  0  0  0
  5  7  1  0  0  0  0
  5 10  1  0  0  0  0
  5 31  1  6  0  0  0
  6  7  1  0  0  0  0
  8 12  1  0  0  0  0
  9 14  1  0  0  0  0
  9 15  1  6  0  0  0
 10 13  1  0  0  0  0
 10 16  2  0  0  0  0
 12 13  1  0  0  0  0
 14 17  1  0  0  0  0
 16 19  1  0  0  0  0
 17 18  1  0  0  0  0
 18 20  1  0  0  0  0
 19 21  2  0  0  0  0
 20 24  1  0  0  0  0
 20 25  1  0  0  0  0
 21 22  1  0  0  0  0
 21 23  1  0  0  0  0
 22 26  1  0  0  0  0
 23 27  1  0  0  0  0
 23 29  2  0  0  0  0
 26 28  1  0  0  0  0
 27 28  1  0  0  0  0
M  END
> <DATABASE_ID>
DB01436

> <DATABASE_NAME>
drugbank

> <SMILES>
CC(C)CCC[C@@H](C)[C@@]1([H])CC[C@@]2([H])\C(CCC[C@]12C)=C\C=C1\C[C@@H](O)C[C@H](O)C1=C

> <INCHI_IDENTIFIER>
InChI=1S/C27H44O2/c1-18(2)8-6-9-19(3)24-13-14-25-21(10-7-15-27(24,25)5)11-12-22-16-23(28)17-26(29)20(22)4/h11-12,18-19,23-26,28-29H,4,6-10,13-17H2,1-3,5H3/b21-11+,22-12-/t19-,23-,24-,25+,26+,27-/m1/s1

> <INCHI_KEY>
OFHCOWSQAMBJIW-AVJTYSNKSA-N

> <FORMULA>
C27H44O2

> <MOLECULAR_WEIGHT>
400.6371

> <EXACT_MASS>
400.334130652

> <JCHEM_ACCEPTOR_COUNT>
2

> <JCHEM_AVERAGE_POLARIZABILITY>
50.55246071457845

> <JCHEM_BIOAVAILABILITY>
1

> <JCHEM_DONOR_COUNT>
2

> <JCHEM_FORMAL_CHARGE>
0

> <JCHEM_GHOSE_FILTER>
0

> <JCHEM_IUPAC>
(1R,3S,5Z)-5-{2-[(1R,3aS,4E,7aR)-7a-methyl-1-[(2R)-6-methylheptan-2-yl]-octahydro-1H-inden-4-ylidene]ethylidene}-4-methylidenecyclohexane-1,3-diol

> <ALOGPS_LOGP>
6.68

> <JCHEM_LOGP>
5.821855681666667

> <ALOGPS_LOGS>
-5.39

> <JCHEM_MDDR_LIKE_RULE>
1

> <JCHEM_NUMBER_OF_RINGS>
3

> <JCHEM_PHYSIOLOGICAL_CHARGE>
0

> <JCHEM_PKA>
15.288747760735944

> <JCHEM_PKA_STRONGEST_ACIDIC>
14.392873609845417

> <JCHEM_PKA_STRONGEST_BASIC>
-2.7596614720148134

> <JCHEM_POLAR_SURFACE_AREA>
40.46

> <JCHEM_REFRACTIVITY>
124.69639999999995

> <JCHEM_ROTATABLE_BOND_COUNT>
6

> <JCHEM_RULE_OF_FIVE>
0

> <ALOGPS_SOLUBILITY>
1.63e-03 g/l

> <JCHEM_TRADITIONAL_IUPAC>
etα

> <JCHEM_VEBER_RULE>
0

> <DRUGBANK_ID>
DB01436

> <DRUG_GROUPS>
approved; nutraceutical

> <GENERIC_NAME>
Alfacalcidol

> <SYNONYMS>
(5Z,7E)-9,10-seco-5,7,10(19)-cholestatrien-1α,3β-diol; 1-hydroxycholecalciferol; 1alpha-hydroxycholecalciferol; 1α-hydroxy-vitamin D3; 1α-hydroxycholecalciferol; 1α-hydroxyvitamin D3; 9,10-secocholesta-5,7,10(19)-triene-1α,3β-diol; Alfacalcidol; Alfacalcidolum

> <PRODUCTS>
One Alpha Caps 0.25mcg; One Alpha Caps 1mcg; One-alpha; One-alpha Sol 0.2mcg/ml

> <INTERNATIONAL_BRANDS>
Alsiodol; One Alpha

$$$$
AND
  Mrv0541 02231215402D          

 25 28  0  0  0  0            999 V2000
    1.4289   -0.5277    0.0000 C   0  0  0  0  0  0  0  0  0  0  0  0
    2.2410   -0.3824    0.0000 C   0  0  0  0  0  0  0  0  0  0  0  0
    2.5213    0.3935    0.0000 C   0  0  2  0  0  0  0  0  0  0  0  0
    3.3334    0.5387    0.0000 O   0  0  0  0  0  0  0  0  0  0  0  0
    1.9895    1.0242    0.0000 C   0  0  0  0  0  0  0  0  0  0  0  0
    1.1774    0.8790    0.0000 C   0  0  0  0  0  0  0  0  0  0  0  0
    0.6455    1.5097    0.0000 C   0  0  0  0  0  0  0  0  0  0  0  0
   -0.1666    1.3645    0.0000 C   0  0  0  0  0  0  0  0  0  0  0  0
   -0.4469    0.5885    0.0000 C   0  0  2  0  0  0  0  0  0  0  0  0
    0.0849   -0.0422    0.0000 C   0  0  1  0  0  0  0  0  0  0  0  0
    0.8971    0.1030    0.0000 C   0  0  1  0  0  0  0  0  0  0  0  0
   -0.1954   -0.8181    0.0000 C   0  0  0  0  0  0  0  0  0  0  0  0
   -1.0075   -0.9633    0.0000 C   0  0  0  0  0  0  0  0  0  0  0  0
   -1.5393   -0.3326    0.0000 C   0  0  1  0  0  0  0  0  0  0  0  0
   -1.2590    0.4433    0.0000 C   0  0  1  0  0  0  0  0  0  0  0  0
   -1.9103    0.9497    0.0000 C   0  0  0  0  0  0  0  0  0  0  0  0
   -2.5932    0.4867    0.0000 C   0  0  0  0  0  0  0  0  0  0  0  0
   -2.3639   -0.3058    0.0000 C   0  0  0  0  0  0  0  0  0  0  0  0
   -2.8702   -0.9571    0.0000 O   0  0  0  0  0  0  0  0  0  0  0  0
   -1.8992   -1.0750    0.0000 C   0  0  0  0  0  0  0  0  0  0  0  0
    0.6168   -0.6729    0.0000 C   0  0  0  0  0  0  0  0  0  0  0  0
    2.8977   -0.0529    0.0000 H   0  0  0  0  0  0  0  0  0  0  0  0
   -0.8233    1.0350    0.0000 H   0  0  0  0  0  0  0  0  0  0  0  0
    0.2860   -0.5904    0.0000 H   0  0  0  0  0  0  0  0  0  0  0  0
   -1.1191    1.0102    0.0000 H   0  0  0  0  0  0  0  0  0  0  0  0
  1  2  1  0  0  0  0
  1 11  1  0  0  0  0
  2  3  1  0  0  0  0
  3  4  1  1  0  0  0
  3  5  1  0  0  0  0
  3 22  1  6  0  0  0
  5  6  1  0  0  0  0
  6  7  2  0  0  0  0
  6 11  1  0  0  0  0
  7  8  1  0  0  0  0
  8  9  1  0  0  0  0
  9 10  1  0  0  0  0
  9 15  1  0  0  0  0
  9 23  1  1  0  0  0
 10 11  1  0  0  0  0
 10 12  1  0  0  0  0
 10 24  1  6  0  0  0
 11 21  1  1  0  0  0
 12 13  1  0  0  0  0
 13 14  1  0  0  0  0
 14 15  1  0  0  0  0
 14 18  1  0  0  0  0
 14 20  1  1  0  0  0
 15 16  1  0  0  0  0
 15 25  1  6  0  0  0
 16 17  1  0  0  0  0
 17 18  1  0  0  0  0
 18 19  2  0  0  0  0
M  END
> <DATABASE_ID>
DB01708

> <DATABASE_NAME>
drugbank

> <SMILES>
[H][C@@]12CCC(=O)[C@@]1(C)CC[C@@]1([H])[C@@]2([H])CC=C2C[C@@]([H])(O)CC[C@]12C

> <INCHI_IDENTIFIER>
InChI=1S/C19H28O2/c1-18-9-7-13(20)11-12(18)3-4-14-15-5-6-17(21)19(15,2)10-8-16(14)18/h3,13-16,20H,4-11H2,1-2H3/t13-,14-,15-,16-,18-,19-/m0/s1

> <INCHI_KEY>
FMGSKLZLMKYGDP-USOAJAOKSA-N

> <FORMULA>
C19H28O2

> <MOLECULAR_WEIGHT>
288.4244

> <EXACT_MASS>
288.20893014

> <JCHEM_ACCEPTOR_COUNT>
2

> <JCHEM_AVERAGE_POLARIZABILITY>
34.094008682923715

> <JCHEM_BIOAVAILABILITY>
1

> <JCHEM_DONOR_COUNT>
1

> <JCHEM_FORMAL_CHARGE>
0

> <JCHEM_GHOSE_FILTER>
1

> <JCHEM_IUPAC>
(1S,2R,5S,10R,11S,15S)-5-hydroxy-2,15-dimethyltetracyclo[8.7.0.0²,⁷.0¹¹,¹⁵]heptadec-7-en-14-one

> <ALOGPS_LOGP>
3.53

> <JCHEM_LOGP>
3.361705055333334

> <ALOGPS_LOGS>
-3.82

> <JCHEM_MDDR_LIKE_RULE>
0

> <JCHEM_NUMBER_OF_RINGS>
4

> <JCHEM_PHYSIOLOGICAL_CHARGE>
0

> <JCHEM_PKA>
19.957705855663583

> <JCHEM_PKA_STRONGEST_ACIDIC>
18.204289505502594

> <JCHEM_PKA_STRONGEST_BASIC>
-1.3972434077338853

> <JCHEM_POLAR_SURFACE_AREA>
37.3

> <JCHEM_REFRACTIVITY>
84.65889999999999

> <JCHEM_ROTATABLE_BOND_COUNT>
0

> <JCHEM_RULE_OF_FIVE>
1

> <ALOGPS_SOLUBILITY>
4.38e-02 g/l

> <JCHEM_TRADITIONAL_IUPAC>
dehydroepiandrosterone

> <JCHEM_VEBER_RULE>
1

> <DRUGBANK_ID>
DB01708

> <SECONDARY_ACCESSION_NUMBERS>
EXPT00519; DB06593

> <DRUG_GROUPS>
approved; investigational; nutraceutical

> <GENERIC_NAME>
Prasterone

> <SYNONYMS>
3-beta-hydroxy-5-androsten-17-one; 3beta-hydroxyandrost-5-en-17-one; 3β-hydroxyandrost-5-en-17-one; Dehydroandrosterone; Dehydroepiandrosterone; Dehydroisoandrosterone; DHEA; Prasterone

> <PRODUCTS>
Intrarosa; Prastera

> <INTERNATIONAL_BRANDS>
Fidelin; OVIGYN-D

$$$$

  Mrv1909 11271921562D          

 15 14  0  0  0  0            999 V2000
   -1.0612   -0.2729    0.0000 C   0  0  2  0  0  0  0  0  0  0  0  0
   -1.7834    0.1198    0.0000 C   0  0  0  0  0  0  0  0  0  0  0  0
   -0.3579    0.1582    0.0000 C   0  0  0  0  0  0  0  0  0  0  0  0
   -1.0466   -1.0250    0.0000 O   0  0  0  0  0  0  0  0  0  0  0  0
   -2.5122    0.5158    0.0000 C   0  0  0  0  0  0  0  0  0  0  0  0
   -2.1863   -0.6024    0.0000 C   0  0  0  0  0  0  0  0  0  0  0  0
   -1.3941    0.8419    0.0000 C   0  0  0  0  0  0  0  0  0  0  0  0
    0.3642   -0.2446    0.0000 N   0  0  0  0  0  0  0  0  0  0  0  0
   -0.3663    0.9891    0.0000 O   0  0  0  0  0  0  0  0  0  0  0  0
   -3.2087    0.0812    0.0000 O   0  0  0  0  0  0  0  0  0  0  0  0
    1.0609    0.1796    0.0000 C   0  0  0  0  0  0  0  0  0  0  0  0
    1.7831   -0.2198    0.0000 C   0  0  0  0  0  0  0  0  0  0  0  0
    2.4866    0.1942    0.0000 C   0  0  0  0  0  0  0  0  0  0  0  0
    3.2087   -0.2052    0.0000 O   0  0  0  0  0  0  0  0  0  0  0  0
    2.4782    1.0250    0.0000 O   0  0  0  0  0  0  0  0  0  0  0  0
  1  2  1  0  0  0  0
  1  3  1  0  0  0  0
  1  4  1  6  0  0  0
  2  5  1  0  0  0  0
  2  6  1  0  0  0  0
  2  7  1  0  0  0  0
  3  8  1  0  0  0  0
  3  9  2  0  0  0  0
  5 10  1  0  0  0  0
  8 11  1  0  0  0  0
 11 12  1  0  0  0  0
 12 13  1  0  0  0  0
 13 14  1  0  0  0  0
 13 15  2  0  0  0  0
M  END
> <DATABASE_ID>
DB01783

> <DATABASE_NAME>
drugbank

> <SMILES>
CC(C)(CO)[C@@H](O)C(=O)NCCC(O)=O

> <INCHI_IDENTIFIER>
InChI=1S/C9H17NO5/c1-9(2,5-11)7(14)8(15)10-4-3-6(12)13/h7,11,14H,3-5H2,1-2H3,(H,10,15)(H,12,13)/t7-/m0/s1

> <INCHI_KEY>
GHOKWGTUZJEAQD-ZETCQYMHSA-N

> <FORMULA>
C9H17NO5

> <MOLECULAR_WEIGHT>
219.235

> <EXACT_MASS>
219.110672659

> <JCHEM_ACCEPTOR_COUNT>
5

> <JCHEM_ATOM_COUNT>
32

> <JCHEM_AVERAGE_POLARIZABILITY>
21.987799216909416

> <JCHEM_BIOAVAILABILITY>
1

> <JCHEM_DONOR_COUNT>
4

> <JCHEM_FORMAL_CHARGE>
0

> <JCHEM_GHOSE_FILTER>
0

> <JCHEM_IUPAC>
3-[(2R)-2,4-dihydroxy-3,3-dimethylbutanamido]propanoic acid

> <ALOGPS_LOGP>
-1.12

> <JCHEM_LOGP>
-1.3553751066666662

> <ALOGPS_LOGS>
-0.56

> <JCHEM_MDDR_LIKE_RULE>
0

> <JCHEM_NUMBER_OF_RINGS>
0

> <JCHEM_PHYSIOLOGICAL_CHARGE>
-1

> <JCHEM_PKA>
12.685728183953428

> <JCHEM_PKA_STRONGEST_ACIDIC>
4.3547414254714205

> <JCHEM_PKA_STRONGEST_BASIC>
-2.7860052632571373

> <JCHEM_POLAR_SURFACE_AREA>
106.86000000000001

> <JCHEM_REFRACTIVITY>
51.511100000000006

> <JCHEM_ROTATABLE_BOND_COUNT>
6

> <JCHEM_RULE_OF_FIVE>
1

> <ALOGPS_SOLUBILITY>
6.05e+01 g/l

> <JCHEM_TRADITIONAL_IUPAC>
racemiccalcium pantothenate

> <JCHEM_VEBER_RULE>
0

> <DRUGBANK_ID>
DB01783

> <SECONDARY_ACCESSION_NUMBERS>
EXPT02501

> <DRUG_GROUPS>
approved; nutraceutical; vet_approved

> <GENERIC_NAME>
Pantothenic acid

> <SYNONYMS>
(+)-Pantothenic acid; D-pantothenic acid; Pantothenate; Vitamin B5

> <PRODUCTS>
24 Multivitamins + Minerals; 50 Plus; 50 Plus Multiple Vitamins & Minerals; Acti Pantothenic Acid 1000 Timed Caplet; Acti-pantothenic Acid 300 Caplet 300mg; Adrenergy Tablets; Adrenogist Tab; Adult Formula 50+; Advanced 2000 Capsules; Advanced B & T Formula; Alkadrenergy Tablets; Allbee C 800 Tab; Allbee With C 550 Cap; Allbee With Vitamin C Cap; American Eagle Energizer Plus Vitamin Supplement Drink; American Plus Energy & Vitamin Drink; Amerix Multivitamin; Anaplex Tab; Armax; Avon Vitadvance Multi-kids Complete; B 50 Capsules; B C Antistress Cap; B Complex 25mg Vitamin Supplement; B Complex 50 Vitamin Cap; B Complex 50+ Caplet; B Complex 500 Tab; B Complex Plus C 300mg Tab; B Complex Tablets; B Complex W C Forte Cap; B Complex W Vit C W Non-med Yeast&liver Tab; B Complex W Vitamin C Fortis Cap; B Complex With C 300mg; B Complex With C 300mg Tab; B Complex With C 550mg; B Compound 50mg Tab; B Plus C 300 mg; B Plus C 300mg Timed Release; B Stress C + Iron & Vite; B Totum 500; B Virol; B With C 500 Cap; B-100 Caps; B-100 Complex Tablets; B-100 Hi Potency B Vitamins Tab; B-100 Vitamin Supplement; B-50 Complex; B-50 Complex Tab; B-50 Hi Potency B Vitamins Tab; B-complex; B-complex 100; B-complex 50; B-complex Tab; B-complex Tablets; B-complex With Vitamin C, Biotin, Folic Acid; B-complex-50 Tab; B-plex; B-plus - Tab; B50 B Complex Tab; B50 Complex; Bacmin; Balanced B 125 Srt; Balanced B-100 B-complex Vitamins Tab; Balanced B-100 Timed Release; Balanced B-50 B-complex Vitamins Tab; Balanced B-50 B-complex Vitamins, Timed Rele; Balanced B-50 Complex; Balanced B-complex Vit + Vit C&e Tab; Balanced B100; Balanced B50 Complex; Bear Essentials; Beminal 500 Tab; Beminal With C Fortis Cap; Bev 29 Tab; Bev B-150; Bio-fen; Biosculpt; Body Rox; C-B Complex; C-apnto-B6 Vitamins W Magnesium Tab; C. Vit-min Formula; C.R.T. X Multivitamin & Mineral Powder Mix; Calcium Pantothenate Tab 250mg; Calpan Tab 100mg; Calpan Tab 250mg; Carbassist Tablets; Cavan Heme OB; Cc II; Cda-21 Vitamins With Non-medicinal Probiotic Complex; Cedevita Plus Vitamin Supplement; Cedevita Sugar-free Vitamin Supplement; Central-vite 18 Essential; Centratex; Century Complete; Chela Iron Plus C,b Complex; Chewable Adult Multivitamins With Minerals; Chewable Children's Complete Multivitamins With Essential Minerals; Children Choice Multivit Chewable Tab; Children Choice Multivitamin W Iron Chew Tab; Children's Chew Multi & Min Tab; Children's Chewable Multi-vitamin Complete With Minerals; Children's Chewable Multivitamin Complete With Minerals; Children's Chewable Multivitamin and Multimineral; Children's Chewable Multivitamins With Minerals; Children's Chewable Multivitamins and Minerals; Children's Chewable Tab; Children's Chewable Vit and Min Tab; Children's Chewable With Iron; Children's Multivitamins; Children's Multivitamins With Iron; Childrens Chewab Vitamin W Chel Minerals; Childrens Chewable Vitamin Tab; Childrens Chewable Vitamins W Iron; Childrens Multiple Vit and Min Chew Tab; Classic Swiss One 10 Multivitamin and Mineral Tab; Complete Mega B; Complete Multivitamins and Minerals Tablets Timed Release; Complete Multivitamins and Minerals for Children; Complex 5 - Pwr; Complex-75; Complexe B 75mg; Complexe B Compose 75; Complexe B-75; Concept DHA; Concept OB; Corvita; Corvite; Corvite Free; D Pantothenic 500mg With 100mg C; D Pantothenic Acid Tab 100mg; D'pantothenic Acid Srt 1000mg; D'pantothenic Acid-B1-B2 Tab; D-pantothenic Acid 250mg; D-pantothenic Acid 250mg Cap; DaVITE; Daily Balance Tab; Daily Energy Brand B-complex; Dalivit; Derma-force; Dexifol; Dia-vite; Dialyvite; Dialyvite 3000; Dialyvite 5000; Dialyvite Supreme D; Dialyvite with Zinc; Diaplex; Doctor's Choice Brand for Men; Dothelle DHA; Dp 2000; Dr Angio; Earthpals Children's Chewables Multi-vitamin & Mineral Tablets; Efferlife Multivitamins and Minerals; Elite OB Prenatal Multivitamin; Energy 80 Prolonged Release Tab; Enrich Core Pack - Children Vitamin and Mineral Supplement; Envirocomplex; Enviroflex - Tab; Envive; Escavite; Escavite D; Essential B Tablets; Essential Vitamins and Minerals; Extra Once A Day; Extra P.N. Vitamin-mineral Drink Mix; Fem - Pmt; Fem Time Tab; Floriva Plus; Folika-NC; Folika-T; Folivane-OB; Folivane-Plus with Ascorbic Acid Precursors; For-2; Formula 9 Tab; Formula Adr-vitamin B2,b6 W Calpan Tab; Formula Cm; Formula D.S.; Formula F L W; Formula F.E.S. Vitamins Tab; Formula Gly; Formula Gm; Formula Hh; Formula Im-vitamins and Minerals Tab; Formula Js; Formula L.G.I.; Formula Lf; Formula O.C.; Formula Statin Support; Fortamines 10 Capsules; Fortamines-10 Comprimes; Fortistress Tab; Forty Plus Vitamin Supplement; Fusion Activator Formula Tab; Genicin Vita-S; Glyco Lite Ect; Glyco Plus Ect; Glyco-aide Tab; Grand Master Formula Tab; Great Day/am Formula Tab; Gtf Support Caplet; Harvest Of Values All B Complex Tab; Hemarexin Tab; HemeNatal OB; HemeNatal OB plus DHA; Hemocyte Plus; Hi Potency B Complex W Chelated Minerals; Hi Potency B52 B Complex Tab; Hi Potency Balanced B-100 Complex - Tab; Hi Potency Multi Tab; Hi Potency Stress B Tension With C; High Potency Multivitamins & Minerals Caplets; High Potency Vitamin B Complex + C Tab; Hill.vite; Hoa 1; Hsn Formula; Hylavite; Hypo Vites Tab; Hyporyl - Tab; Iberet 500; Inner Health Vitamin Supplement Capsules; Innersource Tab; Insur-all Vitamin Supplement; Integra Plus; Iron 25mg With Vit B-cmplx, Vit C, Cu & Mo; Iron, Vit & Min Supp; Irospan 24/6; Isotonix Multitech Vitamin Mineral Supplemen; K.L. Vitamin-mineral; Kanga Sport Vitamins B & C Plus Minerals; Kanga-B Vitamin B Group + C; Kanga-V Multivitamins & Minerals; Kanga-kid Multi-vitamin & Mineral; Kc Vitamin and Mineral Supplement; Kenwood Liquid Supplement; Kindervites; L.C. Supplement; Leritone Junior; Lipo-B-C Tab; Lipovitan; Liqui B Complex; Liqui B Complex Plus; Liqui Infant Vitamins; Liqui Vita; Liquid B Complex 50; Livron Plus Tab; Lorid; Low Potency B Complex Tab; Luna Vitamin and Mineral Bar for Women; M.V.I. Paediatric; MYNEPHROCAPS DIALYSIS/STRESS Vitamin Supplement; Magnum-75 Vitamin and Mineral Supplement; Maintain Multiple Vitamin & Minerals; Master Key Multi Vitamin Multi Mineral Formula 2; Materna; Materna - Tab; Materna-tab; Maxi 10 Tab; Maximum Once A Day; Maxine Vitamin and Mineral Supplement; Mega 13 Multivitamin Formula; Mega Balance; Mega Capsules; Mega Plex III - Pck; Mega Plex IV - Pck; Mega Vitaminerals; Mega-vim 75 With Beta-carotene - Tablets; Megavite Rx; Men's; Men's 50+; Men's Biomultiple Vitamin and Mineral Supplement; Men's Multi Master Formula; Meplex T 750; Milltrium Senior Vitamin and Mineral Supplement; Mini-B Tab; Mor-vites Tab; Mr. Tumee Multi-vitamin; Multi #2; Multi - N.T.O.x Formula - Tab; Multi B; Multi II IV Vi Tab; Multi Nt-OX; Multi Plex I - Tab; Multi Plex II - Tab; Multi Pro; Multi Tabs; Multi Vitamin & Minerals; Multi Vitamin - Mineral; Multi Vitamin and Mineral vitamin; Multi Vitamin-mineral Formula; Multi Vitamines - Liq; Multi Vitamins & Minerals; Multi-actin; Multi-force for Women Tab; Multi-kid; Multi-phyto Capsules; Multi-vitamin Dietary Supplement; Multi-vitamines Enfants Comprime; Multi-vitamins With Minerals; Multicaps; Multipack II; Multiple Vitamin Plus Minerals Tab; Multiple Vitamins & Minerals Tablets; Multiple Vitamins - Tablet; Multiple Vitamins Childrens Chewable; Multiple Vitamins Plus Iron for Women; Multiple Vitamins W Minerals Tab; Multiple Vitamins With Iron Tablets; Multiple Vitamins With Minerals Tablets; Multiple Vitamins and Minerals; Multiple Vitamins and Minerals Capsules; Multiple Vitamins and Minerals Tab; Multisol; Multitabs; Multivit-liq; Multivitamin & Minerals (iron Free); Multivitamin & Multimineral; Multivitamines Et Mineraux; Multivitamines Et Mineraux Junior Regulier; Multivitamines Et Mineraux Reguliers / Regular Multivitamins and Minerals; Multivitamins W Minerals Extra Strength; Multivitamins and Minerals - Complete; Multivitamins and Minerals Tablets; Multivitamins and Minerals With Betacarotene Tablets; Multivitamins and Minerals for Men; Multivitamins and Minerals for Women; Multivitamins and Minerals for Young Men; Multivitamins and Minerals for Young Women; Multivitamins and Multiminerals Formula Regular Tablet; Multra Plex; Multra With Iron; Myhephron Dialysis and Stress Supplement; NEONATAL Complete; Nata Komplete; Natal-V RX Multi-vitamin/Multi-mineral; Natural Source Spectrum With Beta Carotene; Neonatal DHA; Neonatal19; NephPlex Rx; Nephrocaps; Nephrocaps-QT; Nephron FA; New Chapter's D'adamo 4 Your Type Multiple for Type O; Nioxin Recharging Complex; Numark Multivitamins; Nutra Boost; Nutrilite Double X; Nutrol-B-complex; OB Complete Prenatal; Ob-X; Olympian Multi Vit Plus Minerals Tab; Omega-3 Rx Complete; Onccor; Oncovite; One A Day Advance Adults; One A Day Advance Adults 50+; One A Day Advance Fem; One A Day Multiple Vit W Minerals; One A Day Tab; One Daily Vitamin and Mineral Dietary Supplement; One Per Day Vitamin and Mineral Dietary Supplement; One Tablet Daily Mens Formula; One-A-day Advance Fem - Tablets; One-A-day Advance Men's; Only One - Tablet; Original Bioscal Forte Multi-vitamin Supplement Capsules; Orti B; Osteo-force; P.N. Vitamin-mineral Drink; P.N.P. Vitamin Drink; PM Caps; PNV Ferrous Fumarate Docusate Folic Acid; PNV Tabs 29-1; PNV-Select; Paire OB Plus DHA; Palm Springs Multvit and Min Tab; Pantacid Tab 250mg; Pantothenic Acid; Pantothenic Acid 100 Mg Tablets; Pantothenic Acid 100mg; Pantothenic Acid 250mg; Pantothenic Acid 500 Caplet 500mg; Pantothenic Acid 500 mg; Pantothenic Acid 500mg; Pantothenic Acid Cap 250mg; Pantothenic Acid Caps 100mg; Pantothenic Acid Caps 250mg; Pantothenic Acid Ctr Srt 500mg; Pantothenic Acid Tab 100mg; Pantothenic Acid Tab 100mg Nu Life; Pantothenic Acid Tab 200mg; Pantothenic Acid Tab 250mg; Pantothenic Acid Tab 500mg; Pantothenic Acid Tablets 300mg; Pantothenic Acid-S Tab 100mg; Paramettes Adults; Phosthenine Vitamines Et Fer (ampoules Buvable); Phytopure; Phytovim Cap; Pnv-VP-U; Polymine Avec Zinc Et Cuivre; Potassium Plus Vit B Complex; PreGen DHA; PreNatal 19; Prefera OB plus DHA; PreferaOB; PreferaOB ONE; PreferaOB One; PreferaOB plus DHA; Pregvit; Pregvit Folic 4; Pregvit Folic 5; Premium Prenatal; Premium Prenatal - Tablets; Prena1; Prena1 Plus; Prenatal Formula Tab; Prenatal Mega Antioxidant; Prenatal Supplement - Tab; Prenatal Vi-min; Prenatal Vitamin and Mineral Supplement; Prenatal Vitamin and Mineral Supplement -tab; Prenatal Vitamin and Mineral Supplement Tab; Prenatal Vitamins and Minerals Tablets; Prenatal and Post Partum Supplement; Prenate Elite; Prenate Star; Prenatvite Complete; Pro Hers Vanilla; PureFe OB Plus; PureFe Plus; PureVit DualFe Plus; Q.T. Vitamin and Mineral Drink Mix; Quflora FE; Quflora FE Pediatric Drops; R.E.S. Complex; RE FAC-x; RE Nata OB; Red American Eagle Vitamin Supplement Drink; Red Bull; Renal Caps Dialysis/Stress Vitamin Supplement; Reno Caps; Replavite; Revit Multi-vitamins and Minerals; Revit Plus Cap; Revitalize Multi-vitamin and Mineral Complex; Revival 1 Tab; Right Choice A.M. Multi Formula - Caplet; Se-Natal 19; Se-Natal 19 Chewable; Se-Natal One; Se-Tan PLUS; Senior Multi One; Shen Min Vitamin Supplement; Shen Min Vitamin and Mineral Supplement; Sibergin B - Cap; Snh Formula; Somavit Brand Vitamins and Minerals Complex; Sopalamine 3b Plus; Sopalamine/3b Plus C; Spectra 301 Vitamin and Mineral Supp; Spectrum 2 Cap; Spectrum Performa Multivitamins and Minerals Tablets; Stress B & C Caplet; Stress B Capsules With Vitamin C; Stress B Complex With C and E Tab; Stress B Complex With C, E & Iron; Stress B Complex With C, E and Iron Tab; Stress B Complex With C,e, Zinc and Copper; Stress B With 1000 Mg Vitamin C; Stress B&c Tab; Stress B-complex Plus Iron With Vitamins C&e; Stress Complex 600 Avec Vit E Cuivre Zinc; Stress Ctr Srt; Stress Formula; Stress Formula + Iron; Stress Formula B-comp + 500mg Vit C Tab; Stress Formula Multi-B Comp + 500mg Vit C Cap; Stress Formula Multivitamin Tablets USP; Stress Formula Tab; Stress Formula Vit B With C Complex; Stress Forte Plus Lipotropic Factors; Stress Tab; Stress Tab With Iron and Vitamin E; Stress Tab With Zinc, Copper and Vitamin E; Stress Tablets; Stress Vitamin B With C Complex Tablets; Stressmates; Stresstabs + Zinc-copper; Strovite Forte Caplet; Strovite One Caplets; Sun-rype Vitaburst; Super B Compound W 500mg Vit C; Super Charged Energy; Super Daily No 2; Super Kids Chewable Multivitamin Multimineral (chewable Tablets); Super Multi; Super Pantoplex; Super Stress Capsules; Super Stress Mega B Plus 1000mg Vit C Tab; Super Vita Vim Multivitamins and Minerals; Super Vita-vim With Beta-carotene - Tab; Super-cell; Super-pote Vitamin Supplement; Supplement De Multivitamines Infusion Arome Fruits Rouges; Supravite Bouteille 250ml; Supravite Stress Avec Vit E; Supravite Stress Avec Vit E Cuivre Et Zinc; Supravite Stress Avec Vit E Et Fer; Surbex 500 Filmtab; Surbex-500 With Iron; Surbex-500 With Zinc; Swical-energy 3e Age; Swical-energy-2; Swiss One; Swiss One Multi Vit & Chel Min Tab; Swiss One Multivitamin and Mineral Caplet; Swiss One Timed Release Tab; Swiss Total One; T.R.I. B-plex Src; T.S. Formula; TL-Fluorivite; TL-Folate; TRONVite; Tandem OB; Tandem Plus; Tar-end; Taron-C DHA; Thrivite 19; Thrivite Rx; Time Release B 100 Compound - Tablet; Timed Release B Complex 100 Srt; Timed Release B-complex 100; Timed Release B-complex 50; Timed Release Vita-vim Srt; Toni Com Liq; Total Living Concepts Formula One - Tab; Totalvit Plus; Tri Adrenopan; Tricare Prenatal 2-part Daily Prenatal Vitamin System; Tricare Prenatal Quick Dissolve; Trinatal GT; Trinatal Rx 1; TriphroCaps; Twin Ultra Liquid Fruit Punch Flavor; Twin Ultra Liquid Grape Flavor; Twin Ultra Liquid Lemon-lime Flavor; Twin Ultra Liquid Orange Flavor; Ultra Enerforce; Ultra Hr; Usana Megavitamin Tablets - Tab; V & M Vitamin and Mineral Supplement; VIL-Rx; VP-HEME One; VP-Vite Rx; Vasodyn Tab; Vc II; Vege 1 Daily Tab; Vege Swiss One Multivitamin W Chel Mins Tab; Vinate AZ; Virt Vite GT; Virt-C DHA; Virt-Caps; Virt-PN; Virt-Pn; Virt-Vite Plus; Vit B Complex Ctr; Vit B Complex Plus Vit C 550mg; Vit-HA Multi Vitamin and Zinc Supplement; Vita B + C 500 Tab; Vita B Complex Tab; Vita Plex Tab; Vita Vim Multivitamins and Minerals Tab; Vita Vim With Beta Carotene-caplet; Vita-B; Vita-B-75 Cap; Vita-Rx Diabetic Vitamin; Vita-tenic Cap 300mg; Vita-vim - Tab; Vita-vim With Beta-carotene - Tab; Vita-worth B-complex Tablets; VitaPhil Aide; Vitabanks Vitamin Tab; Vitaday Junior Tab; Vitaflex Dietary Suplement; Vital Be-100; Vital-D Rx; Vitalife - Capsule; Vitamin & Mineral Formula 1 Dietary Supplement; Vitamin B + C Cap; Vitamin B Complex + C 300mg Cap; Vitamin B Complex + C 600mg Tab; Vitamin B Complex 100 Tab; Vitamin B Complex 50; Vitamin B Complex Plus 300mg Vitamin C; Vitamin B Complex Plus C 300mg Timed Release; Vitamin B Complex Suppl; Vitamin B Complex Tab; Vitamin B Complex W C 300mg Tab; Vitamin B Complex W C Tab; Vitamin B Compound Tab; Vitamin B Compound W C Tab 500mg; Vitamin B Compound W Vit C 250mg Tab; Vitamin B Compound With Vitamin C Fortis Capsule Dtc; Vitamin B Cpd W Vit C Tab; Vitamin B Tablets; Vitamin B5 (pantothenic Acid) Tab 250mg; Vitamin B5 Tab 50mg USP Chewable; Vitamine 110 Liq; Vitamines Et Mineraux; Vitamines Et Mineraux Comprimes; Vitamines Et Mineraux Enfants 970; Vitaphil 90 DHA; Vitaphil DHA; Vitaplex; Vitasure; Vitogen B Stress C Vit E Zinc & Cop; Vitogen B Stress C600; Viva Kids - Tab; Vol-Care Rx; Vol-Tab Rx; Vp-heme Ob; Vp-heme Ob DHA; Vtb Vitamin and Mineral Supplement; Vyo Cylate - Pwr; Vyqua; Wellness Formula; Women's Biomultiple Vitamin and Mineral Supplement; Women's Change Formula; Women's Formula; Xvite; Z Bec Tab; Zatean-Pn; ahoSAN; bioJET; healthy mamaBE WELL ROUNDED BE WELL ROUNDED; vitaMedMD One Rx; vitaMedMD Rx Plus

> <SALTS>
Calcium pantothenate; Sodium pantothenate

$$$$

  Mrv1909 11061922422D          

 39 40  0  0  0  0            999 V2000
   -0.0484    1.2841    0.0000 C   0  0  1  0  0  0  0  0  0  0  0  0
   -0.8106    0.9684    0.0000 C   0  0  0  0  0  0  0  0  0  0  0  0
   -1.1263    0.2062    0.0000 C   0  0  0  0  0  0  0  0  0  0  0  0
    1.0294    0.2062    0.0000 C   0  0  2  0  0  0  0  0  0  0  0  0
   -0.8106   -0.5559    0.0000 C   0  0  0  0  0  0  0  0  0  0  0  0
   -0.0484   -0.8716    0.0000 C   0  0  2  0  0  0  0  0  0  0  0  0
    0.7137   -0.5559    0.0000 C   0  0  0  0  0  0  0  0  0  0  0  0
   -0.0484    2.1091    0.0000 C   0  0  0  0  0  0  0  0  0  0  0  0
   -1.3940    1.5518    0.0000 O   0  0  0  0  0  0  0  0  0  0  0  0
   -0.7629    2.5216    0.0000 O   0  0  0  0  0  0  0  0  0  0  0  0
    0.6660    2.5216    0.0000 C   0  0  0  0  0  0  0  0  0  0  0  0
   -1.3940   -1.1393    0.0000 O   0  0  0  0  0  0  0  0  0  0  0  0
   -0.0484   -1.6966    0.0000 C   0  0  0  0  0  0  0  0  0  0  0  0
   -0.7629   -2.1091    0.0000 C   0  0  0  0  0  0  0  0  0  0  0  0
   -0.7629   -2.9341    0.0000 C   0  0  0  0  0  0  0  0  0  0  0  0
   -1.4773   -3.3466    0.0000 C   0  0  0  0  0  0  0  0  0  0  0  0
   -0.0484   -3.3466    0.0000 C   0  0  0  0  0  0  0  0  0  0  0  0
   -1.9513    0.2062    0.0000 C   0  0  0  0  0  0  0  0  0  0  0  0
   -2.3638    0.9208    0.0000 C   0  0  0  0  0  0  0  0  0  0  0  0
   -3.1888    0.9208    0.0000 C   0  0  0  0  0  0  0  0  0  0  0  0
   -3.6013    1.6352    0.0000 C   0  0  0  0  0  0  0  0  0  0  0  0
   -3.6013    0.2063    0.0000 C   0  0  0  0  0  0  0  0  0  0  0  0
    1.8544    0.2062    0.0000 C   0  0  0  0  0  0  0  0  0  0  0  0
    2.2669   -0.5082    0.0000 C   0  0  0  0  0  0  0  0  0  0  0  0
    3.0919   -0.5082    0.0000 C   0  0  0  0  0  0  0  0  0  0  0  0
    3.5044   -1.2226    0.0000 C   0  0  0  0  0  0  0  0  0  0  0  0
    3.5044    0.2062    0.0000 C   0  0  0  0  0  0  0  0  0  0  0  0
   -0.5741    0.2062    0.0000 C   0  0  0  0  0  0  0  0  0  0  0  0
    0.2508    0.2062    0.0000 O   0  0  0  0  0  0  0  0  0  0  0  0
    0.6661    3.3466    0.0000 C   0  0  0  0  0  0  0  0  0  0  0  0
    1.3805    2.1091    0.0000 C   0  0  0  0  0  0  0  0  0  0  0  0
    0.7137    0.9684    0.0000 C   0  0  1  0  0  0  0  0  0  0  0  0
    1.1263    1.6829    0.0000 C   0  0  0  0  0  0  0  0  0  0  0  0
    1.9513    1.6828    0.0000 C   0  0  0  0  0  0  0  0  0  0  0  0
    2.3638    2.3972    0.0000 C   0  0  0  0  0  0  0  0  0  0  0  0
    3.1888    2.3972    0.0000 C   0  0  0  0  0  0  0  0  0  0  0  0
    3.6013    3.1117    0.0000 C   0  0  0  0  0  0  0  0  0  0  0  0
    3.6013    1.6827    0.0000 C   0  0  0  0  0  0  0  0  0  0  0  0
    1.5388    0.9683    0.0000 C   0  0  0  0  0  0  0  0  0  0  0  0
  1  8  1  0  0  0  0
  1 28  1  1  0  0  0
  2  9  1  0  0  0  0
  5 12  2  0  0  0  0
  6 13  1  0  0  0  0
  6 28  1  1  0  0  0
  3 18  1  0  0  0  0
  4 23  1  1  0  0  0
  8 10  2  0  0  0  0
  8 11  1  0  0  0  0
 13 14  1  0  0  0  0
 14 15  2  0  0  0  0
 15 16  1  0  0  0  0
 15 17  1  0  0  0  0
 18 19  1  0  0  0  0
 19 20  2  0  0  0  0
 20 21  1  0  0  0  0
 20 22  1  0  0  0  0
 23 24  1  0  0  0  0
 24 25  2  0  0  0  0
 25 26  1  0  0  0  0
 25 27  1  0  0  0  0
 28 29  2  0  0  0  0
 11 30  1  0  0  0  0
 11 31  1  0  0  0  0
 32 33  1  0  0  0  0
 32 39  1  1  0  0  0
 33 34  1  0  0  0  0
 34 35  1  0  0  0  0
 35 36  2  0  0  0  0
 36 37  1  0  0  0  0
 36 38  1  0  0  0  0
  4  7  1  0  0  0  0
  1  2  1  0  0  0  0
  2  3  2  0  0  0  0
  3  5  1  0  0  0  0
  6  5  1  0  0  0  0
  6  7  1  0  0  0  0
  1 32  1  0  0  0  0
 32  4  1  0  0  0  0
M  END
> <DATABASE_ID>
DB01892

> <DATABASE_NAME>
drugbank

> <SMILES>
CC(C)C(=O)[C@@]12C(O)=C(CC=C(C)C)C(=O)[C@@](CC=C(C)C)(C[C@H](CC=C(C)C)[C@@]1(C)CCC=C(C)C)C2=O

> <INCHI_IDENTIFIER>
InChI=1S/C35H52O4/c1-22(2)13-12-19-33(11)27(16-14-23(3)4)21-34(20-18-25(7)8)30(37)28(17-15-24(5)6)31(38)35(33,32(34)39)29(36)26(9)10/h13-15,18,26-27,38H,12,16-17,19-21H2,1-11H3/t27-,33+,34+,35-/m0/s1

> <INCHI_KEY>
IWBJJCOKGLUQIZ-HQKKAZOISA-N

> <FORMULA>
C35H52O4

> <MOLECULAR_WEIGHT>
536.797

> <EXACT_MASS>
536.386560154

> <JCHEM_ACCEPTOR_COUNT>
4

> <JCHEM_ATOM_COUNT>
91

> <JCHEM_AVERAGE_POLARIZABILITY>
63.752155638281955

> <JCHEM_BIOAVAILABILITY>
0

> <JCHEM_DONOR_COUNT>
1

> <JCHEM_FORMAL_CHARGE>
0

> <JCHEM_GHOSE_FILTER>
0

> <JCHEM_IUPAC>
(1R,5S,6R,7S)-4-hydroxy-6-methyl-1,3,7-tris(3-methylbut-2-en-1-yl)-6-(4-methylpent-3-en-1-yl)-5-(2-methylpropanoyl)bicyclo[3.3.1]non-3-ene-2,9-dione

> <ALOGPS_LOGP>
6.32

> <JCHEM_LOGP>
9.666358571

> <ALOGPS_LOGS>
-5.93

> <JCHEM_MDDR_LIKE_RULE>
0

> <JCHEM_NUMBER_OF_RINGS>
2

> <JCHEM_PHYSIOLOGICAL_CHARGE>
-1

> <JCHEM_PKA_STRONGEST_ACIDIC>
3.615648100719672

> <JCHEM_PKA_STRONGEST_BASIC>
-7.256126724498689

> <JCHEM_POLAR_SURFACE_AREA>
71.44

> <JCHEM_REFRACTIVITY>
166.68250000000003

> <JCHEM_ROTATABLE_BOND_COUNT>
11

> <JCHEM_RULE_OF_FIVE>
0

> <ALOGPS_SOLUBILITY>
6.32e-04 g/l

> <JCHEM_TRADITIONAL_IUPAC>
(2S,3S,4R,5S)-2-{4-amino-3H,4H,5H-pyrrolo[3,2-d]pyrimidin-7-yl}-5-[(methylsulfanyl)methyl]pyrrolidine-3,4-diol

> <JCHEM_VEBER_RULE>
0

> <DRUGBANK_ID>
DB01892

> <SECONDARY_ACCESSION_NUMBERS>
EXPT01804

> <DRUG_GROUPS>
nutraceutical

> <GENERIC_NAME>
Hyperforin

> <SYNONYMS>
Hiperforina; Hyperforine

$$$$

  Mrv0541 02231215512D          

  7  6  0  0  0  0            999 V2000
    0.1105   -2.0625    0.0000 N   0  0  0  0  0  0  0  0  0  0  0  0
    0.1105   -1.2375    0.0000 C   0  0  0  0  0  0  0  0  0  0  0  0
    0.8250   -0.8250    0.0000 C   0  0  0  0  0  0  0  0  0  0  0  0
    0.8250    0.0000    0.0000 S   0  0  0  0  0  0  0  0  0  0  0  0
    0.8250    0.8250    0.0000 O   0  0  0  0  0  0  0  0  0  0  0  0
    1.6500    0.0000    0.0000 O   0  0  0  0  0  0  0  0  0  0  0  0
    0.0000    0.0000    0.0000 O   0  0  0  0  0  0  0  0  0  0  0  0
  1  2  1  0  0  0  0
  2  3  1  0  0  0  0
  3  4  1  0  0  0  0
  4  5  1  0  0  0  0
  4  6  2  0  0  0  0
  4  7  2  0  0  0  0
M  END
> <DATABASE_ID>
DB01956

> <DATABASE_NAME>
drugbank

> <SMILES>
NCCS(O)(=O)=O

> <INCHI_IDENTIFIER>
InChI=1S/C2H7NO3S/c3-1-2-7(4,5)6/h1-3H2,(H,4,5,6)

> <INCHI_KEY>
XOAAWQZATWQOTB-UHFFFAOYSA-N

> <FORMULA>
C2H7NO3S

> <MOLECULAR_WEIGHT>
125.147

> <EXACT_MASS>
125.014663785

> <JCHEM_ACCEPTOR_COUNT>
4

> <JCHEM_AVERAGE_POLARIZABILITY>
10.824350988998518

> <JCHEM_BIOAVAILABILITY>
1

> <JCHEM_DONOR_COUNT>
2

> <JCHEM_FORMAL_CHARGE>
0

> <JCHEM_GHOSE_FILTER>
0

> <JCHEM_IUPAC>
2-aminoethane-1-sulfonic acid

> <ALOGPS_LOGP>
-2.19

> <JCHEM_LOGP>
-2.6146873946423876

> <ALOGPS_LOGS>
-0.08

> <JCHEM_MDDR_LIKE_RULE>
0

> <JCHEM_NUMBER_OF_RINGS>
0

> <JCHEM_PHYSIOLOGICAL_CHARGE>
0

> <JCHEM_PKA_STRONGEST_ACIDIC>
-1.4937847370487942

> <JCHEM_PKA_STRONGEST_BASIC>
9.343935759428495

> <JCHEM_POLAR_SURFACE_AREA>
80.39

> <JCHEM_REFRACTIVITY>
24.605100000000004

> <JCHEM_ROTATABLE_BOND_COUNT>
2

> <JCHEM_RULE_OF_FIVE>
1

> <ALOGPS_SOLUBILITY>
1.05e+02 g/l

> <JCHEM_TRADITIONAL_IUPAC>
taurine

> <JCHEM_VEBER_RULE>
0

> <DRUGBANK_ID>
DB01956

> <SECONDARY_ACCESSION_NUMBERS>
EXPT03010; DB11103

> <DRUG_GROUPS>
approved; nutraceutical

> <GENERIC_NAME>
Taurine

> <SYNONYMS>
Aminoethylsulfonic acid; Taurine; Taurineold

> <PRODUCTS>
Aminosyn-PF; Aminosyn-PF 10%; Aminosyn-PF 7%; Ginsamin Energy; Lingtea; Premasol - sulfite-free (Amino Acid); Primene; Primene 10%; Primene 10%-liq IV; Smofkabiven; Smofkabiven Electrolyte Free; Smofkabiven Extra Nitrogen; Smofkabiven Extra Nitrogen Electrolyte Free; Smofkabiven Peripheral; Tozal; TrophAmine

$$$$
 
  Mrv0541 07171209582D          
 
 48 50  0  0  1  0            999 V2000
   12.6750   -8.3538    0.0000 N   0  0  0  0  0  0  0  0  0  0  0  0
   12.3338   -9.7864    0.0000 C   0  0  2  0  0  0  0  0  0  0  0  0
   11.2348   -8.3538    0.0000 C   0  0  0  0  0  0  0  0  0  0  0  0
   12.6787   -7.5239    0.0000 C   0  0  0  0  0  0  0  0  0  0  0  0
   11.6518   -9.2937    0.0000 O   0  0  0  0  0  0  0  0  0  0  0  0
   12.0838  -10.5633    0.0000 C   0  0  1  0  0  0  0  0  0  0  0  0
   11.2348   -7.5239    0.0000 C   0  0  0  0  0  0  0  0  0  0  0  0
   10.5110   -8.7782    0.0000 N   0  0  0  0  0  0  0  0  0  0  0  0
   11.9587   -7.1032    0.0000 N   0  0  0  0  0  0  0  0  0  0  0  0
   10.9809   -9.7750    0.0000 C   0  0  1  0  0  0  0  0  0  0  0  0
   11.2424  -10.5633    0.0000 C   0  0  1  0  0  0  0  0  0  0  0  0
   12.5235  -11.1359    0.0000 O   0  0  0  0  0  0  0  0  0  0  0  0
   10.5110   -7.1108    0.0000 C   0  0  0  0  0  0  0  0  0  0  0  0
    9.7984   -8.3538    0.0000 C   0  0  0  0  0  0  0  0  0  0  0  0
   10.2116   -9.5324    0.0000 C   0  0  0  0  0  0  0  0  0  0  0  0
   10.8218  -11.1545    0.0000 O   0  0  0  0  0  0  0  0  0  0  0  0
    9.7984   -7.5239    0.0000 N   0  0  0  0  0  0  0  0  0  0  0  0
   10.5110   -6.3299    0.0000 N   0  0  0  0  0  0  0  0  0  0  0  0
    9.1275  -10.1121    0.0000 O   0  0  0  0  0  0  0  0  0  0  0  0
    9.9463  -11.1469    0.0000 P   0  0  0  0  0  0  0  0  0  0  0  0
    7.7673  -10.0819    0.0000 P   0  0  0  0  0  0  0  0  0  0  0  0
    9.9616  -10.3171    0.0000 O   0  0  0  0  0  0  0  0  0  0  0  0
    9.1844  -11.1206    0.0000 O   0  0  0  0  0  0  0  0  0  0  0  0
    9.9840  -11.9769    0.0000 O   0  0  0  0  0  0  0  0  0  0  0  0
    7.7673  -11.8706    0.0000 O   0  0  0  0  0  0  0  0  0  0  0  0
    7.7748   -9.2029    0.0000 O   0  0  0  0  0  0  0  0  0  0  0  0
    6.9863  -10.1121    0.0000 O   0  0  0  0  0  0  0  0  0  0  0  0
    7.7709  -13.5985    0.0000 P   0  0  0  0  0  0  0  0  0  0  0  0
    8.6313  -13.5796    0.0000 O   0  0  0  0  0  0  0  0  0  0  0  0
    7.8049  -14.5724    0.0000 O   0  0  0  0  0  0  0  0  0  0  0  0
    6.9448  -13.5833    0.0000 O   0  0  0  0  0  0  0  0  0  0  0  0
    9.3399  -13.1702    0.0000 C   0  0  0  0  0  0  0  0  0  0  0  0
   10.0562  -13.5796    0.0000 C   0  0  0  0  0  0  0  0  0  0  0  0
   10.7687  -13.1702    0.0000 C   0  0  2  0  0  0  0  0  0  0  0  0
   10.0448  -14.3147    0.0000 C   0  0  0  0  0  0  0  0  0  0  0  0
   10.0373  -12.7759    0.0000 C   0  0  0  0  0  0  0  0  0  0  0  0
   11.4850  -13.5796    0.0000 C   0  0  0  0  0  0  0  0  0  0  0  0
   10.7687  -12.3440    0.0000 O   0  0  0  0  0  0  0  0  0  0  0  0
   12.1974  -13.1702    0.0000 N   0  0  0  0  0  0  0  0  0  0  0  0
   11.4850  -14.3605    0.0000 O   0  0  0  0  0  0  0  0  0  0  0  0
   12.9099  -13.5796    0.0000 C   0  0  0  0  0  0  0  0  0  0  0  0
   13.6262  -13.1702    0.0000 C   0  0  0  0  0  0  0  0  0  0  0  0
   14.3387  -13.5796    0.0000 C   0  0  0  0  0  0  0  0  0  0  0  0
   15.0512  -13.1702    0.0000 N   0  0  0  0  0  0  0  0  0  0  0  0
   14.3387  -14.4057    0.0000 O   0  0  0  0  0  0  0  0  0  0  0  0
   15.7675  -13.5796    0.0000 C   0  0  0  0  0  0  0  0  0  0  0  0
   16.4799  -13.1665    0.0000 C   0  0  0  0  0  0  0  0  0  0  0  0
   17.1923  -13.5796    0.0000 S   0  0  0  0  0  0  0  0  0  0  0  0
  2  1  1  1  0  0  0
  1  3  1  0  0  0  0
  1  4  1  0  0  0  0
  2  5  1  0  0  0  0
  2  6  1  0  0  0  0
  3  7  2  0  0  0  0
  3  8  1  0  0  0  0
  4  9  2  0  0  0  0
  5 10  1  0  0  0  0
  6 11  1  0  0  0  0
  6 12  1  6  0  0  0
  7 13  1  0  0  0  0
  8 14  2  0  0  0  0
 10 15  1  1  0  0  0
 11 16  1  6  0  0  0
 13 17  2  0  0  0  0
 13 18  1  0  0  0  0
 15 19  1  0  0  0  0
 16 20  1  0  0  0  0
 19 21  1  0  0  0  0
 20 22  1  0  0  0  0
 20 23  1  0  0  0  0
 20 24  2  0  0  0  0
 21 25  1  0  0  0  0
 21 26  1  0  0  0  0
 21 27  2  0  0  0  0
 25 28  1  0  0  0  0
 28 29  1  0  0  0  0
 28 30  1  0  0  0  0
 28 31  2  0  0  0  0
 29 32  1  0  0  0  0
 32 33  1  0  0  0  0
 33 34  1  0  0  0  0
 33 35  1  0  0  0  0
 33 36  1  0  0  0  0
 34 37  1  0  0  0  0
 34 38  1  1  0  0  0
 37 39  1  0  0  0  0
 37 40  2  0  0  0  0
 39 41  1  0  0  0  0
 41 42  1  0  0  0  0
 42 43  1  0  0  0  0
 43 44  1  0  0  0  0
 43 45  2  0  0  0  0
 44 46  1  0  0  0  0
 46 47  1  0  0  0  0
 47 48  1  0  0  0  0
  7  9  1  0  0  0  0
 10 11  1  0  0  0  0
 14 17  1  0  0  0  0
M  END
> <DATABASE_ID>
DB01992

> <DATABASE_NAME>
drugbank

> <SMILES>
CC(C)(COP(O)(=O)OP(O)(=O)OC[C@H]1O[C@H]([C@H](O)[C@@H]1OP(O)(O)=O)N1C=NC2=C1N=CN=C2N)[C@@H](O)C(=O)NCCC(=O)NCCS

> <INCHI_IDENTIFIER>
InChI=1S/C21H36N7O16P3S/c1-21(2,16(31)19(32)24-4-3-12(29)23-5-6-48)8-41-47(38,39)44-46(36,37)40-7-11-15(43-45(33,34)35)14(30)20(42-11)28-10-27-13-17(22)25-9-26-18(13)28/h9-11,14-16,20,30-31,48H,3-8H2,1-2H3,(H,23,29)(H,24,32)(H,36,37)(H,38,39)(H2,22,25,26)(H2,33,34,35)/t11-,14-,15-,16+,20-/m1/s1

> <INCHI_KEY>
RGJOEKWQDUBAIZ-IBOSZNHHSA-N

> <FORMULA>
C21H36N7O16P3S

> <MOLECULAR_WEIGHT>
767.534

> <EXACT_MASS>
767.115208365

> <JCHEM_ACCEPTOR_COUNT>
16

> <JCHEM_AVERAGE_POLARIZABILITY>
66.04262704318104

> <JCHEM_BIOAVAILABILITY>
0

> <JCHEM_DONOR_COUNT>
10

> <JCHEM_FORMAL_CHARGE>
0

> <JCHEM_GHOSE_FILTER>
0

> <JCHEM_IUPAC>
{[(2R,3S,4R,5R)-5-(6-amino-9H-purin-9-yl)-4-hydroxy-2-({[hydroxy({hydroxy[(3R)-3-hydroxy-2,2-dimethyl-3-({2-[(2-sulfanylethyl)carbamoyl]ethyl}carbamoyl)propoxy]phosphoryl}oxy)phosphoryl]oxy}methyl)oxolan-3-yl]oxy}phosphonic acid

> <ALOGPS_LOGP>
-0.61

> <JCHEM_LOGP>
-6.815818430386719

> <ALOGPS_LOGS>
-2.22

> <JCHEM_MDDR_LIKE_RULE>
1

> <JCHEM_NUMBER_OF_RINGS>
3

> <JCHEM_PHYSIOLOGICAL_CHARGE>
-4

> <JCHEM_PKA>
1.8334045153544372

> <JCHEM_PKA_STRONGEST_ACIDIC>
0.8252479624787852

> <JCHEM_PKA_STRONGEST_BASIC>
4.946043849022175

> <JCHEM_POLAR_SURFACE_AREA>
346.5599999999999

> <JCHEM_REFRACTIVITY>
162.7402

> <JCHEM_ROTATABLE_BOND_COUNT>
18

> <JCHEM_RULE_OF_FIVE>
0

> <ALOGPS_SOLUBILITY>
4.64e+00 g/l

> <JCHEM_TRADITIONAL_IUPAC>
coenzym A

> <JCHEM_VEBER_RULE>
0

> <DRUGBANK_ID>
DB01992

> <SECONDARY_ACCESSION_NUMBERS>
EXPT00991

> <DRUG_GROUPS>
investigational; nutraceutical

> <GENERIC_NAME>
Coenzyme A

> <SYNONYMS>
3'-phosphoadenosine-(5')diphospho(4')pantatheine; CoA; CoA-SH; CoASH; HSCoA

$$$$

  Mrv0541 04301222382D          

 16 17  0  0  0  0            999 V2000
    0.7145   -0.4125    0.0000 N   0  0  0  0  0  0  0  0  0  0  0  0
   -0.7145    0.4125    0.0000 C   0  0  0  0  0  0  0  0  0  0  0  0
    0.7145    0.4125    0.0000 C   0  0  1  0  0  0  0  0  0  0  0  0
    0.0000    0.8250    0.0000 C   0  0  0  0  0  0  0  0  0  0  0  0
   -0.7145   -0.4125    0.0000 C   0  0  0  0  0  0  0  0  0  0  0  0
   -1.4991   -0.6674    0.0000 N   0  0  0  0  0  0  0  0  0  0  0  0
   -1.9840    0.0000    0.0000 C   0  0  0  0  0  0  0  0  0  0  0  0
   -1.4991    0.6674    0.0000 C   0  0  0  0  0  0  0  0  0  0  0  0
   -1.8347    1.4211    0.0000 C   0  0  0  0  0  0  0  0  0  0  0  0
   -2.8045    0.0862    0.0000 C   0  0  0  0  0  0  0  0  0  0  0  0
   -3.1401    0.8399    0.0000 C   0  0  0  0  0  0  0  0  0  0  0  0
    1.4289    1.6500    0.0000 O   0  0  0  0  0  0  0  0  0  0  0  0
    1.4289    0.8250    0.0000 C   0  0  0  0  0  0  0  0  0  0  0  0
    2.1434    0.4125    0.0000 O   0  0  0  0  0  0  0  0  0  0  0  0
   -2.6551    1.5074    0.0000 C   0  0  0  0  0  0  0  0  0  0  0  0
   -2.9907    2.2610    0.0000 O   0  0  0  0  0  0  0  0  0  0  0  0
  2  8  1  0  0  0  0
  3  1  1  1  0  0  0
  3 13  1  0  0  0  0
  2  4  1  0  0  0  0
  4  3  1  0  0  0  0
  2  5  2  0  0  0  0
  5  6  1  0  0  0  0
  6  7  1  0  0  0  0
  7  8  2  0  0  0  0
  7 10  1  0  0  0  0
  8  9  1  0  0  0  0
  9 15  2  0  0  0  0
 10 11  2  0  0  0  0
 11 15  1  0  0  0  0
 13 12  2  0  0  0  0
 14 13  1  0  0  0  0
 15 16  1  0  0  0  0
M  END
> <DATABASE_ID>
DB02959

> <DATABASE_NAME>
drugbank

> <SMILES>
N[C@@H](CC1=CNC2=C1C=C(O)C=C2)C(O)=O

> <INCHI_IDENTIFIER>
InChI=1S/C11H12N2O3/c12-9(11(15)16)3-6-5-13-10-2-1-7(14)4-8(6)10/h1-2,4-5,9,13-14H,3,12H2,(H,15,16)/t9-/m0/s1

> <INCHI_KEY>
LDCYZAJDBXYCGN-VIFPVBQESA-N

> <FORMULA>
C11H12N2O3

> <MOLECULAR_WEIGHT>
220.2246

> <EXACT_MASS>
220.08479226

> <JCHEM_ACCEPTOR_COUNT>
4

> <JCHEM_AVERAGE_POLARIZABILITY>
22.030658706262532

> <JCHEM_BIOAVAILABILITY>
1

> <JCHEM_DONOR_COUNT>
4

> <JCHEM_FORMAL_CHARGE>
0

> <JCHEM_GHOSE_FILTER>
0

> <JCHEM_IUPAC>
(2S)-2-amino-3-(5-hydroxy-1H-indol-3-yl)propanoic acid

> <ALOGPS_LOGP>
-1.56

> <JCHEM_LOGP>
-1.3896984621581003

> <ALOGPS_LOGS>
-1.78

> <JCHEM_MDDR_LIKE_RULE>
0

> <JCHEM_NUMBER_OF_RINGS>
2

> <JCHEM_PHYSIOLOGICAL_CHARGE>
0

> <JCHEM_PKA>
9.795366619375281

> <JCHEM_PKA_STRONGEST_ACIDIC>
2.152663935897665

> <JCHEM_PKA_STRONGEST_BASIC>
9.18065085700301

> <JCHEM_POLAR_SURFACE_AREA>
99.34

> <JCHEM_REFRACTIVITY>
58.18370000000001

> <JCHEM_ROTATABLE_BOND_COUNT>
3

> <JCHEM_RULE_OF_FIVE>
1

> <ALOGPS_SOLUBILITY>
3.63e+00 g/l

> <JCHEM_TRADITIONAL_IUPAC>
hydroxytryptophan

> <JCHEM_VEBER_RULE>
0

> <DRUGBANK_ID>
DB02959

> <SECONDARY_ACCESSION_NUMBERS>
EXPT01780

> <DRUG_GROUPS>
approved; investigational; nutraceutical

> <GENERIC_NAME>
Oxitriptan

> <SYNONYMS>
5-hydroxy-L-tryptophan; 5-hydroxytryptophan L-form; L-5-HTP; L-5-hydroxytryptophan; Oxitriptan; Oxitriptano; Oxitriptanum

> <PRODUCTS>
Hypnosom

> <INTERNATIONAL_BRANDS>
Cincofarm; Levothym; Quietim; Tript-OH

$$$$
[NO NAME]
  Mrv0541 04211221232D          
Created with ChemWriter - http://chemwriter.com
 11 12  0  0  1  0            999 V2000
   -0.7145    0.4125    0.0000 C   0  0  0  0  0  0  0  0  0  0  0  0
   -0.7145   -0.4125    0.0000 C   0  0  0  0  0  0  0  0  0  0  0  0
    0.7145    0.4125    0.0000 O   0  0  0  0  0  0  0  0  0  0  0  0
    1.5395   -0.4125    0.0000 C   0  0  0  0  0  0  0  0  0  0  0  0
    0.7145   -0.4125    0.0000 C   0  0  0  0  0  0  0  0  0  0  0  0
    1.1270   -1.1270    0.0000 C   0  0  0  0  0  0  0  0  0  0  0  0
    0.0000    0.8250    0.0000 C   0  0  1  0  0  0  0  0  0  0  0  0
    0.0000    1.6500    0.0000 C   0  0  0  0  0  0  0  0  0  0  0  0
    0.0000   -0.8250    0.0000 C   0  0  1  0  0  0  0  0  0  0  0  0
   -0.3000    0.3000    0.0000 C   0  0  0  0  0  0  0  0  0  0  0  0
   -0.3000   -0.3000    0.0000 C   0  0  0  0  0  0  0  0  0  0  0  0
  9  5  1  0  0  0  0
  9  2  1  0  0  0  0
  5  3  1  0  0  0  0
  3  7  1  0  0  0  0
  7  1  1  0  0  0  0
  1  2  1  0  0  0  0
  7 10  1  1  0  0  0
  9 11  1  1  0  0  0
 11 10  1  0  0  0  0
  5  4  1  0  0  0  0
  5  6  1  0  0  0  0
  7  8  1  0  0  0  0
M  END
> <DATABASE_ID>
DB03852

> <DATABASE_NAME>
drugbank

> <SMILES>
C[C@@]12CC[C@@H](CC1)C(C)(C)O2

> <INCHI_IDENTIFIER>
InChI=1S/C10H18O/c1-9(2)8-4-6-10(3,11-9)7-5-8/h8H,4-7H2,1-3H3/t8-,10+

> <INCHI_KEY>
WEEGYLXZBRQIMU-WAAGHKOSSA-N

> <FORMULA>
C10H18O

> <MOLECULAR_WEIGHT>
154.2493

> <EXACT_MASS>
154.135765198

> <JCHEM_ACCEPTOR_COUNT>
1

> <JCHEM_AVERAGE_POLARIZABILITY>
18.537951798375282

> <JCHEM_BIOAVAILABILITY>
1

> <JCHEM_DONOR_COUNT>
0

> <JCHEM_FORMAL_CHARGE>
0

> <JCHEM_GHOSE_FILTER>
0

> <JCHEM_IUPAC>
(1s,4s)-1,3,3-trimethyl-2-oxabicyclo[2.2.2]octane

> <ALOGPS_LOGP>
3.36

> <JCHEM_LOGP>
2.3484196063333327

> <ALOGPS_LOGS>
-3.84

> <JCHEM_MDDR_LIKE_RULE>
0

> <JCHEM_NUMBER_OF_RINGS>
2

> <JCHEM_PHYSIOLOGICAL_CHARGE>
0

> <JCHEM_PKA_STRONGEST_BASIC>
-4.205900916339655

> <JCHEM_POLAR_SURFACE_AREA>
9.23

> <JCHEM_REFRACTIVITY>
45.8609

> <JCHEM_ROTATABLE_BOND_COUNT>
0

> <JCHEM_RULE_OF_FIVE>
1

> <ALOGPS_SOLUBILITY>
2.25e-02 g/l

> <JCHEM_TRADITIONAL_IUPAC>
1,8-cineole

> <JCHEM_VEBER_RULE>
1

> <DRUGBANK_ID>
DB03852

> <SECONDARY_ACCESSION_NUMBERS>
EXPT00969

> <DRUG_GROUPS>
experimental; nutraceutical

> <GENERIC_NAME>
Eucalyptol

> <SYNONYMS>
1,8-cineol; 1,8-Cineole; 1,8-epoxy-p-menthane; 1,8-oxido-p-menthane; Cajeputol; Cineole; Eucalyptol; Zineol

> <PRODUCTS>
Advanced Antiseptic; Advanced Antiseptic Citrus; Advanced Citrus; Advanced Citrus Antiseptic; Alsirub Ont; Amber Mouth Rinse; Amber Mouth Wash - Liq; Amber Mouthwash - Liq; Anitseptic Mouth Rinse; Antiseptic; Antiseptic Blue Mint; Antiseptic Blue Mint Mouthwash; Antiseptic Lil Drug Store Products; Antiseptic Mouth Rinse; Antiseptic Mouth Rinse - Liq; Antiseptic Mouth rinse; Antiseptic Mouthrinse; Antiseptic Rinse; Antiseptic Rinse Spring Mint; Antispetic; Antispetic Mouth Rinse; Aqua Blue Mouthwash; Aurora Blue Mint; Aurora Fresh Burst; Balminil Camphorub; Balminil Nasal Ointment; Being Well Antiseptic; Bentasil Green; Biocence; Borasol; Buenos Dias de Personna citrus flavour; Buenos Dias de Personna cool mint; Buenos Dias de Personna mint; Buenos Dias de Personna original; Cal Mo Dol Ont; Calmomusc Liq; Camocare Pain Relieving Cream; Camphorated Ointment Compound; Carboseptol; Cool Mint Antiseptic Mouthwash; Creo Grippe Enfants Sup; Creo Grippe Sup Adultes; Demo Cineol Inj; Demo-cineol Adultes/adults; Demo-cineol Enfants/children; Discount Drug Mart Blue Mint Mouthwash; Discount Drug Mart Original Flavor Mouthwash; Discount Drug Mart Spring Mint Mouthwash; Equate Tartar Control Plus; Family Dollar Antiseptic Mouth Rinse; Family Dollar Antiseptic Mouth Rinse Blue Mint; Family Dollar Antiseptic Mouth Rinse Spring Mint; Family Wellness Blue Mint; Family Wellness Green Mint; Family Wellness Original Amber; Family Wellness Ultra Mouthwash; Giant Eagle Cool Burst Antiseptic; Giant Eagle Cool Burst Mouthwash; Giant Eagle Original Antiseptic; Giant Eagle Original Mouthwash; Giant Eagle Spring Fresh Antiseptic; Giant Eagle Spring Fresh Mouthwash; Green MINT Mouth Rinse; Handy Solutions Cool Mint Listerine Antiseptic Mouthwash; Handy Solutions Listerine Antiseptic Mouthwash; Hyvee Antiseptic Blue Mint; Hyvee Antiseptic Mint; Hyvee Antiseptic Original; Hyvee Blue Mint; Hyvee Health Cool Blue Sugar Free; Hyvee Health Green Mint Sugar Free; Inarub Crm; Infraline Liq; Jack and Jill Rub; Keloid Healer Synergy for treatment of keloids; Kiro-rub; Kroger Cool Mint Boost Mouth; LISTERINE Original Antiseptic; Larynsol Loz; Listerine Advanced with Tartar Protection Antiseptic Citrus; Listerine Antiseptic; Listerine Cool Mint Antiseptic; Listerine FreshBurst Antiseptic; Listerine Gum Therapy Antiseptic; Listerine Naturals Antiseptic; Listerine Naturals Antiseptic - Herbal Mint; Listerine Ultraclean Antiseptic Arctic Mint; Listerine Ultraclean Antiseptic Cool Mint; Listerine Ultraclean Antiseptic Fresh Citrus; Listerine Ultraclean Arctic Mint; Listerine Ultraclean Fresh Citrus; Marco Rub Camphorated Ont; Marcs Blue Mint; Marcs Original; Marcs Spring Mint; Mastic Dent; Mouth Oral Shield; Mouth Rinse; Mouthwash; ORAL-DENT Blue Mint; Onguent Camphre Menthol Alsi; Oral Care Antiseptic; Oral Dent Amber; Oral Dent Blue Mint; Oral Dent Citrus; Oral Dent Fresh Mint; Original Antiseptic; P.O.V. Blue Mint; P.O.V. Spring Mint; P.O.V. Sugarfree; Pastilles Valda; Peppermint Mouth Rinse; Phytorub Ont; Pommade Au The Des Bois; Quality Choice Amber; Quality Choice Blue Mint; Quality Choice Sprng Mint; Rhino-vaccin; Rinse; Rosatra Synergy for treatment of Acne Rosacea; Royal Mouthwash Fresh and Clean Original Mint; Shaping with workout - loose skin revitalizer; Shaping without workout; Shopko Blue Mint; Shopko Ice Mint; Shopko Spring Mint; Slim Booster with natural slimming activators; Smart Sense Blue Mint; Smart Sense Citrus; Smart Sense Iceberg Blue; Smart Sense Original Flavor; Smart Sense Spring Mint; Soft Mint Listerine Antiseptic; Tartar Control; Tartar Control Plus; Tartar control; Tartar control plus; Thermo Rub Ont; Valda Pastilles; Valda Pastilles Lemon Flavoured; Vaporisateur Medicamente

$$$$

  Mrv0541 02231217342D          

 13 12  0  0  0  0            999 V2000
    0.0000    0.8250    0.0000 C   0  0  0  0  0  0  0  0  0  0  0  0
   -0.7145    1.2375    0.0000 O   0  0  0  0  0  0  0  0  0  0  0  0
    0.7145    1.2375    0.0000 O   0  0  0  0  0  0  0  0  0  0  0  0
    1.4289    0.0000    0.0000 C   0  0  0  0  0  0  0  0  0  0  0  0
    1.4289    0.8250    0.0000 O   0  0  0  0  0  0  0  0  0  0  0  0
    2.1434   -0.4125    0.0000 O   0  0  0  0  0  0  0  0  0  0  0  0
   -1.4290    0.8250    0.0000 O   0  0  0  0  0  0  0  0  0  0  0  0
   -1.4290    0.0000    0.0000 C   0  0  0  0  0  0  0  0  0  0  0  0
   -2.1434   -0.4125    0.0000 O   0  0  0  0  0  0  0  0  0  0  0  0
   -0.7145   -0.4125    0.0000 C   0  0  0  0  0  0  0  0  0  0  0  0
    0.7145   -0.4125    0.0000 C   0  0  0  0  0  0  0  0  0  0  0  0
    0.0000    0.0000    0.0000 C   0  0  0  0  0  0  0  0  0  0  0  0
    0.0000   -0.8250    0.0000 O   0  0  0  0  0  0  0  0  0  0  0  0
  4 11  1  0  0  0  0
  2  1  2  0  0  0  0
  3  1  1  0  0  0  0
  5  4  2  0  0  0  0
  6  4  1  0  0  0  0
  8  7  2  0  0  0  0
 10  8  1  0  0  0  0
  8  9  1  0  0  0  0
 12 10  1  0  0  0  0
 11 12  1  0  0  0  0
  1 12  1  0  0  0  0
 12 13  1  0  0  0  0
M  END
> <DATABASE_ID>
DB04272

> <DATABASE_NAME>
drugbank

> <SMILES>
OC(=O)CC(O)(CC(O)=O)C(O)=O

> <INCHI_IDENTIFIER>
InChI=1S/C6H8O7/c7-3(8)1-6(13,5(11)12)2-4(9)10/h13H,1-2H2,(H,7,8)(H,9,10)(H,11,12)

> <INCHI_KEY>
KRKNYBCHXYNGOX-UHFFFAOYSA-N

> <FORMULA>
C6H8O7

> <MOLECULAR_WEIGHT>
192.1235

> <EXACT_MASS>
192.02700261

> <JCHEM_ACCEPTOR_COUNT>
7

> <JCHEM_AVERAGE_POLARIZABILITY>
15.535026604328738

> <JCHEM_BIOAVAILABILITY>
1

> <JCHEM_DONOR_COUNT>
4

> <JCHEM_FORMAL_CHARGE>
0

> <JCHEM_GHOSE_FILTER>
0

> <JCHEM_IUPAC>
2-hydroxypropane-1,2,3-tricarboxylic acid

> <ALOGPS_LOGP>
-1.33

> <JCHEM_LOGP>
-1.3226874519999998

> <ALOGPS_LOGS>
-0.26

> <JCHEM_MDDR_LIKE_RULE>
0

> <JCHEM_NUMBER_OF_RINGS>
0

> <JCHEM_PHYSIOLOGICAL_CHARGE>
-3

> <JCHEM_PKA>
4.674836176324

> <JCHEM_PKA_STRONGEST_ACIDIC>
3.0479515131680714

> <JCHEM_PKA_STRONGEST_BASIC>
-4.185693450231931

> <JCHEM_POLAR_SURFACE_AREA>
132.13

> <JCHEM_REFRACTIVITY>
35.6239

> <JCHEM_ROTATABLE_BOND_COUNT>
5

> <JCHEM_RULE_OF_FIVE>
1

> <ALOGPS_SOLUBILITY>
1.06e+02 g/l

> <JCHEM_TRADITIONAL_IUPAC>
citric acid

> <JCHEM_VEBER_RULE>
0

> <DRUGBANK_ID>
DB04272

> <SECONDARY_ACCESSION_NUMBERS>
EXPT00922

> <DRUG_GROUPS>
approved; nutraceutical; vet_approved

> <GENERIC_NAME>
Citric acid

> <SYNONYMS>
2-hydroxy-1,2,3-propanetricarboxyic acid; 2-Hydroxytricarballylic acid; 3-carboxy-3-hydroxypentane-1,5-dioic acid; ácido cítrico; Acidum citricum; Anhydrous citric acid; Citric acid monoglyceride; Citric Acid, Anhydrous; Citric acid,anhydrous; Citronensäure

> <PRODUCTS>
A-C-D Solution; ACD Blood-Pack Units (PL 146 Plastic); ACD Solution Modified; ADSOL Red Cell Preservation Solution System in Plastic Container (PL 146 Plastic); Acd A; Acd-A; Additive Formula 3; Additive Solution Formula 3 As-3; Adsol Red Cell Preservation; Alka Seltzer; Alka Seltzer Evt; Alka Seltzer Flavoured; Alka Seltzer Original; Alka-Seltzer; Alka-Seltzer Extra Strength; Alka-Seltzer Gold; Alka-Seltzer HEARTBURN; Alka-Seltzer Heartburn; Alka-Seltzer Lemon Lime; Alka-Seltzer Original; Alka-Seltzer XTRA STRENGTH; Alka-seltzer Flavoured; Alka-seltzer Flavoured - Evt; All-Natural Pen Spray; Anticoagulant Cit Phos Dex Adenine Sol USP; Anticoagulant Citrate Dextr Sol Formula A USP; Anticoagulant Citrate Dextrose A; Anticoagulant Citrate Dextrose A ACD-A; Anticoagulant Citrate Dextrose Solution USP (acd) Formula A; Anticoagulant Citrate Dextrose Solution USP (acd) Formula B; Anticoagulant Citrate Dextrose Solution-A; Anticoagulant Citrate Phosphate Dextrose (CPD) Blood-Pack Units in PL 146 Plastic; Anticoagulant Solution Citrate Phosphate Dextrose (CPD); As 3; Av-1000; Av100; B100; Best Choice Effervescent Antacid Pain Relief; Bicaruvas; Blood Pack Unit Cpd; Bromo Seltzer; Bt100s; CPD Solution; CPD/ADSOL Red Cell Preservation Solution System (PL 2209); CPDA-1 Blood Collection System; CVS Health Antacid and Pain Reliever; Care One Original Antacid and Pain Relief; Citracleen; Citrasate C0125; Citrasate C10125; Citrasate C1125; Citrasate C1150; Citrasate C2125; Citrasate C2150; Citrasate C3125; Citrasate C3150; Citrasate C4125; Citric Acid; Citric Acid Wipes; Citric Buffered Normal Saline; Citrocarbonate Eff Pws; Clenpiq; Cpd; Cpd Adenine Cpda 1; Cpd/adsol; Cpda-1; Cytra 3; Cytra-2; Cytra-K; Cytra-K Crystals; DG Health Effervescent Antacid and Pain Relief; Disinfect Wipes; Drug Mart Effervescent Pain Relief; E-Z-gas II; Effervescent Antacid and Pain Relief; Effervescent Pain Relief; Effervescent Pain Relief Fast Relief; Effervescent Pain Relief Fast Relief Fast Relief; EnLyte; Equaline Effervescent Antacid and Pain Relief; Equate Effervescent Antacid and Pain Relief; Family Care Effervescent Antacid and Pain Relief; Family Wellness Effervescent Antacid and Pain Relief; Freds Effervescent Antacid Pain Relief; Good Sense Effervescent Antacid and Pain Relief; Green Fresh; HEB Extra Strength Effervescent Antacid and Pain Relief; Haemonetics Additive Solution Formula 3 (AS-3); Haemonetics Anticoagulant Citrate Dextrose Solution; Haemonetics Anticoagulant Citrate Phosphate Double Dextrose Solution (CP2D); Hand Sanitizer; Hand Washing; Hemasate Ultra Hs0125; Hemasate Ultra Hs1125; Hemasate Ultra Hs1150; Hemasate Ultra Hs2125; Hemasate Ultra Hs2150; Hemasate Ultra Hs3125; Hemasate Ultra Hs3150; Hemasate Ultra Hs4125; Hemosate Ultra Hs0125; Hemosate Ultra Hs1125; Hemosate Ultra Hs1150; Hemosate Ultra Hs2125; Hemosate Ultra Hs2150; Hemosate Ultra Hs3125; Hemosate Ultra Hs3150; Hemosate Ultra Hs4125; Heparin Sodium In 0.9% Sodium Chloride Injection; Heparin Sodium In 5% Dextrose Injection, 25000unit/500ml; HyVee Health Effervescent Antacid and Pain Relief; IDkit HP ONE; IMUFLEX WB-RP Blood Bag System with Integral Whole Blood Leukocyte Reduction Filter (Removing Platelets) with Diversion Blood Sampling Arm Anticoagulant Citrate Phosphate Dextrose (CPD) AND OPTISOL (AS-5) Red Cell Preservative; IMUFLEX WB-SP Blood Bag System with Integral Whole Blood Leukocyte Reduction Filter (Saving Platelets) with Diversion Blood Sampling Arm Anticoagulant Citrate Phosphate Dextrose (CPD) and OPTISOL (AS-5) Red Cell Preservative; Imuflex Wb-SP Blood Bag System With Integral Whole Blood Leukocyte Reduction Filter (saving Platelets) With Diversion Blood Sampling Arm; KID-CLEAN Epiguard (Herbage Basis germ Growth InhibitsSolution); Kroger Effervescent Antacid and Pain Relief; Leader Effervescent Antacid and Pain Relief; Leucoflex CGP; Leukotrap WB System; Lot; Lytren; Lytren Rhs Liq; MTL1 Leucoflex; Medique Medi Seltzer; Meijer Effervescent Antacid and Pain Relief; Nature Clean; Neutra-seltzer; Nutricel Additive System - CP2D; Oracit; Oral Purgative; Pain Relief Fast Relief; Pall Sterile Cord Blood Collection Unit; Phexxi; Pico-salax; Picodan; Picoflo; Picot Plus Effervescent; Potassium Citrate Citric Acid Crystals; Potassium Citrate and Citric Acid; Potassium Citrate-Citric Acid; Potassium Citrate-Sodium Citrate-Citric Acid; PramLyte; Premier Value Antacid and Pain Relief Medicine; Prepopik; Publix Fast Relief Effervescent; Puralor; Purg-odan; Purilab; Quality Choice Effervescent Antacid and Pain Relief; Renacidin; Riga Purgative Lemon Flav Liq; Rite Aid Antacid and Pain Relief; Sal De Uvas Picot; Sal de Uvas Picot; Sanitize/Disinfect Wipes; Signature Care Effervescent Antacid and Pain Relief; Smart Sense Effervescent Antacid and Pain Relief; Sodium Citrate and Citric Acid; Sodium Citrate-Citric Acid; Sterile Cord Blood Collection Unit; Sterile Cord Blood Collection Unit (MSC127D); Sterile Cord Blood Collection Unit (MSC128D); Sterile Cord Blood Collection Unit (msc123d); Stop Hair; TERUFLEX Blood Bag System Anticoagulant Citrate Phosphate Dextrose (CPD) AND OPTISOL Red Cell Preservative; TERUFLEX Blood Bag System Anticoagulant Citrate Phosphate Dextrose Adenine (CPDA-1); TERUFLEX Blood Bag System with Blood Sampling Arm Anticoagulant Citrate Phosphate Dextrose (CPD) AND OPTISOL (AS-5) Red Cell Preservative; TERUFLEX Blood Bag System with Diversion Blood Sampling Arm Anticoagulant Citrate Phosphate Dextrose (CPD) AND OPTISOL (AS-5) Red Cell Preservative; Top Value Effervescent Pain Relief; TopCare Effervescent Antacid and Pain Relief; Tricitrates; Up and Up Antacid and Pain Relief; Urologic G for Irrigation; Urologic Solution G; Vida Mia Pain Relief; Virtrate-2; Virtrate-3; Virtrate-K; Walgreens Effervescent Pain Relief; Whitening Lemon Peel; WinCo Foods Effervescent Antacid and Pain Relief; Zee-Seltzer Antacid and Pain Reliever; bdr Re-action natural low base skin refiner exfoliation essence

> <SALTS>
Citric acid monohydrate

$$$$

  Mrv1718001241811012D          

 33 35  0  0  1  0            999 V2000
   -8.5737   -4.9499    0.0000 N   0  0  0  0  0  0  0  0  0  0  0  0
   -7.8592   -4.5375    0.0000 C   0  0  0  0  0  0  0  0  0  0  0  0
   -7.8592   -3.7125    0.0000 C   0  0  0  0  0  0  0  0  0  0  0  0
   -7.1447   -3.3000    0.0000 C   0  0  0  0  0  0  0  0  0  0  0  0
   -6.4302   -3.7125    0.0000 C   0  0  0  0  0  0  0  0  0  0  0  0
   -6.4302   -4.5375    0.0000 C   0  0  0  0  0  0  0  0  0  0  0  0
   -7.1447   -4.9499    0.0000 C   0  0  0  0  0  0  0  0  0  0  0  0
   -5.7158   -3.3000    0.0000 C   0  0  0  0  0  0  0  0  0  0  0  0
   -5.7158   -2.4749    0.0000 O   0  0  0  0  0  0  0  0  0  0  0  0
   -5.0012   -3.7125    0.0000 N   0  0  0  0  0  0  0  0  0  0  0  0
   -4.2868   -3.3000    0.0000 C   0  0  1  0  0  0  0  0  0  0  0  0
   -3.5724   -3.7125    0.0000 C   0  0  0  0  0  0  0  0  0  0  0  0
   -2.8579   -3.3000    0.0000 C   0  0  0  0  0  0  0  0  0  0  0  0
   -2.1434   -3.7125    0.0000 C   0  0  0  0  0  0  0  0  0  0  0  0
   -1.4289   -3.3000    0.0000 O   0  0  0  0  0  0  0  0  0  0  0  0
   -2.1434   -4.5375    0.0000 O   0  0  0  0  0  0  0  0  0  0  0  0
   -4.2868   -2.4749    0.0000 C   0  0  0  0  0  0  0  0  0  0  0  0
   -3.5724   -2.0625    0.0000 O   0  0  0  0  0  0  0  0  0  0  0  0
   -5.0012   -2.0625    0.0000 O   0  0  0  0  0  0  0  0  0  0  0  0
   -9.2881   -4.5374    0.0000 C   0  0  0  0  0  0  0  0  0  0  0  0
  -10.0026   -4.9499    0.0000 C   0  0  0  0  0  0  0  0  0  0  0  0
  -10.7171   -4.5374    0.0000 N   0  0  0  0  0  0  0  0  0  0  0  0
  -11.4316   -4.9499    0.0000 C   0  0  0  0  0  0  0  0  0  0  0  0
  -11.4315   -5.7749    0.0000 C   0  0  0  0  0  0  0  0  0  0  0  0
  -10.7171   -6.1875    0.0000 N   0  0  0  0  0  0  0  0  0  0  0  0
  -10.0026   -5.7750    0.0000 C   0  0  0  0  0  0  0  0  0  0  0  0
  -12.1463   -4.5375    0.0000 C   0  0  0  0  0  0  0  0  0  0  0  0
  -12.8606   -4.9502    0.0000 N   0  0  0  0  0  0  0  0  0  0  0  0
  -12.8606   -5.7751    0.0000 C   0  0  0  0  0  0  0  0  0  0  0  0
  -12.1460   -6.1876    0.0000 N   0  0  0  0  0  0  0  0  0  0  0  0
  -13.5750   -6.1877    0.0000 N   0  0  0  0  0  0  0  0  0  0  0  0
  -12.1464   -3.7125    0.0000 O   0  0  0  0  0  0  0  0  0  0  0  0
  -10.7171   -3.7124    0.0000 C   0  0  0  0  0  0  0  0  0  0  0  0
  1  2  1  0  0  0  0
  2  3  2  0  0  0  0
  3  4  1  0  0  0  0
  4  5  2  0  0  0  0
  5  6  1  0  0  0  0
  6  7  2  0  0  0  0
  2  7  1  0  0  0  0
  5  8  1  0  0  0  0
  8  9  2  0  0  0  0
  8 10  1  0  0  0  0
 11 10  1  0  0  0  0
 11 12  1  0  0  0  0
 12 13  1  0  0  0  0
 13 14  1  0  0  0  0
 14 15  1  0  0  0  0
 14 16  2  0  0  0  0
 11 17  1  6  0  0  0
 17 18  1  0  0  0  0
 17 19  2  0  0  0  0
  1 20  1  0  0  0  0
 20 21  1  0  0  0  0
 23 24  2  0  0  0  0
 21 26  1  0  0  0  0
 23 27  1  0  0  0  0
 24 25  1  0  0  0  0
 25 26  1  0  0  0  0
 29 30  1  0  0  0  0
 24 30  1  0  0  0  0
 29 31  1  0  0  0  0
 27 32  2  0  0  0  0
 22 23  1  0  0  0  0
 21 22  1  0  0  0  0
 22 33  1  0  0  0  0
 27 28  1  0  0  0  0
 28 29  2  0  0  0  0
M  END
> <DATABASE_ID>
DB04789

> <DATABASE_NAME>
drugbank

> <SMILES>
CN1C(CNC2=CC=C(C=C2)C(=O)N[C@@H](CCC(O)=O)C(O)=O)CNC2=C1C(=O)N=C(N)N2

> <INCHI_IDENTIFIER>
InChI=1S/C20H25N7O6/c1-27-12(9-23-16-15(27)18(31)26-20(21)25-16)8-22-11-4-2-10(3-5-11)17(30)24-13(19(32)33)6-7-14(28)29/h2-5,12-13,22H,6-9H2,1H3,(H,24,30)(H,28,29)(H,32,33)(H4,21,23,25,26,31)/t12?,13-/m0/s1

> <INCHI_KEY>
ZNOVTXRBGFNYRX-ABLWVSNPSA-N

> <FORMULA>
C20H25N7O6

> <MOLECULAR_WEIGHT>
459.463

> <EXACT_MASS>
459.186631553

> <JCHEM_ACCEPTOR_COUNT>
12

> <JCHEM_ATOM_COUNT>
58

> <JCHEM_AVERAGE_POLARIZABILITY>
46.191147111994255

> <JCHEM_BIOAVAILABILITY>
0

> <JCHEM_DONOR_COUNT>
7

> <JCHEM_FORMAL_CHARGE>
0

> <JCHEM_GHOSE_FILTER>
0

> <JCHEM_IUPAC>
(2S)-2-[(4-{[(2-amino-5-methyl-4-oxo-1,4,5,6,7,8-hexahydropteridin-6-yl)methyl]amino}phenyl)formamido]pentanedioic acid

> <ALOGPS_LOGP>
-0.58

> <JCHEM_LOGP>
-2.9765932558972175

> <ALOGPS_LOGS>
-3.14

> <JCHEM_MDDR_LIKE_RULE>
1

> <JCHEM_NUMBER_OF_RINGS>
3

> <JCHEM_PHYSIOLOGICAL_CHARGE>
-2

> <JCHEM_PKA>
3.9330027685146676

> <JCHEM_PKA_STRONGEST_ACIDIC>
3.2305548841491425

> <JCHEM_PKA_STRONGEST_BASIC>
5.323662116139351

> <JCHEM_POLAR_SURFACE_AREA>
198.48000000000002

> <JCHEM_REFRACTIVITY>
126.68129999999996

> <JCHEM_ROTATABLE_BOND_COUNT>
9

> <JCHEM_RULE_OF_FIVE>
0

> <ALOGPS_SOLUBILITY>
3.32e-01 g/l

> <JCHEM_TRADITIONAL_IUPAC>
(2S)-2-[(4-{[(2-amino-5-methyl-4-oxo-1,6,7,8-tetrahydropteridin-6-yl)methyl]amino}phenyl)formamido]pentanedioic acid

> <JCHEM_VEBER_RULE>
0

> <DRUGBANK_ID>
DB04789

> <DRUG_GROUPS>
investigational; nutraceutical

> <GENERIC_NAME>
5-methyltetrahydrofolic acid

> <SYNONYMS>
5-Methyl-5,6,7,8-tetrahydrofolic acid; 5-Methyl-5,6,7,8-tetrahydropteroyl-L-glutamic acid; 5-Methyltetrahydropteroyl monoglutamate; 5-Methyltetrahydropteroylglutamic acid; N-Methyltetrahydrofolate; N-Methyltetrahydrofolic acid; N5-Methyltetrahydrofolate; N5-Methyltetrahydrofolic acid; N5-Methyltetrahydropteroylglutamate

> <PRODUCTS>
Corvite 150; Corvite FE; OB Complete Gold; Prena1; Prena1 Chew; Prena1 Plus; Prenate Elite; Prenate Essential; RediChew; Sodium Polysulthionate, 5-methyltetrahydrofolate; Sodium Polysulthionate, 5-mthf; Sulfzix; Xizflus; vitaMedMD One Rx; vitaMedMD Rx Plus

> <INTERNATIONAL_BRANDS>
Prefolic A

$$$$

  Mrv0541 02241213002D          

 29 34  0  0  1  0            999 V2000
    6.0247   -9.1250    0.0000 C   0  0  0  0  0  0  0  0  0  0  0  0
    6.0247   -9.9500    0.0000 O   0  0  0  0  0  0  0  0  0  0  0  0
    6.8093  -10.2049    0.0000 C   0  0  2  0  0  0  0  0  0  0  0  0
    7.2943   -9.5375    0.0000 C   0  0  2  0  0  0  0  0  0  0  0  0
    6.8093   -8.8701    0.0000 C   0  0  2  0  0  0  0  0  0  0  0  0
    8.0789  -10.6175    0.0000 C   0  0  2  0  0  0  0  0  0  0  0  0
    8.0789   -9.7924    0.0000 C   0  0  1  0  0  0  0  0  0  0  0  0
    8.8635  -10.8723    0.0000 C   0  0  2  0  0  0  0  0  0  0  0  0
    9.3484  -10.2049    0.0000 C   0  0  2  0  0  0  0  0  0  0  0  0
    8.8635   -9.5375    0.0000 O   0  0  0  0  0  0  0  0  0  0  0  0
   10.1331  -10.4598    0.0000 O   0  0  0  0  0  0  0  0  0  0  0  0
   10.1331  -11.2848    0.0000 C   0  0  0  0  0  0  0  0  0  0  0  0
    9.3484  -11.5398    0.0000 C   0  0  2  0  0  0  0  0  0  0  0  0
    5.3572   -8.6401    0.0000 O   0  0  0  0  0  0  0  0  0  0  0  0
    7.2943  -10.8723    0.0000 C   0  0  0  0  0  0  0  0  0  0  0  0
    7.5939  -11.2848    0.0000 C   0  0  1  0  0  0  0  0  0  0  0  0
    8.8635  -11.6973    0.0000 C   0  0  1  0  0  0  0  0  0  0  0  0
    8.0789  -11.9523    0.0000 C   0  0  0  0  0  0  0  0  0  0  0  0
   10.7305  -11.6999    0.0000 O   0  0  0  0  0  0  0  0  0  0  0  0
    7.2758   -8.5344    0.0000 O   0  0  0  0  0  0  0  0  0  0  0  0
    6.7426   -8.0714    0.0000 C   0  0  0  0  0  0  0  0  0  0  0  0
    7.9284   -9.0750    0.0000 C   0  0  0  0  0  0  0  0  0  0  0  0
    7.4250  -10.0678    0.0000 O   0  0  0  0  0  0  0  0  0  0  0  0
    7.9284   -8.4318    0.0000 O   0  0  0  0  0  0  0  0  0  0  0  0
    9.7462  -12.2212    0.0000 O   0  0  0  0  0  0  0  0  0  0  0  0
    8.9212  -12.3890    0.0000 C   0  0  0  0  0  0  0  0  0  0  0  0
    8.4178  -13.0462    0.0000 C   0  0  0  0  0  0  0  0  0  0  0  0
    9.0750  -13.2140    0.0000 C   0  0  0  0  0  0  0  0  0  0  0  0
    9.5784  -12.8784    0.0000 C   0  0  0  0  0  0  0  0  0  0  0  0
  1  2  1  0  0  0  0
  3  2  1  6  0  0  0
  3  4  1  0  0  0  0
  4  5  1  0  0  0  0
  5  1  1  0  0  0  0
  6  7  1  0  0  0  0
  7  4  1  0  0  0  0
  6  8  1  0  0  0  0
  9 10  1  6  0  0  0
 10  7  1  0  0  0  0
  8  9  1  0  0  0  0
  9 11  1  0  0  0  0
 11 12  1  0  0  0  0
 12 13  1  0  0  0  0
 13  8  1  0  0  0  0
  1 14  2  0  0  0  0
  3 15  1  0  0  0  0
 15  6  1  0  0  0  0
  6 16  1  1  0  0  0
  8 17  1  1  0  0  0
 17 18  1  0  0  0  0
 16 18  1  1  0  0  0
 12 19  2  0  0  0  0
  4 20  1  1  0  0  0
  5 21  1  1  0  0  0
  7 22  1  1  0  0  0
 22 23  1  0  0  0  0
 23 16  1  0  0  0  0
 22 24  2  0  0  0  0
 13 25  1  6  0  0  0
 17 26  1  6  0  0  0
 26 27  1  0  0  0  0
 26 28  1  0  0  0  0
 26 29  1  0  0  0  0
M  END
> <DATABASE_ID>
DB06743

> <DATABASE_NAME>
drugbank

> <SMILES>
C[C@@H]1C(=O)O[C@H]2C[C@@]34[C@H]5C[C@@H](C(C)(C)C)[C@@]33[C@@H](O)C(=O)O[C@H]3O[C@@]4(C(=O)O5)[C@@]12O

> <INCHI_IDENTIFIER>
InChI=1S/C20H24O9/c1-7-12(22)26-10-6-17-9-5-8(16(2,3)4)18(17)11(21)13(23)28-15(18)29-20(17,14(24)27-9)19(7,10)25/h7-11,15,21,25H,5-6H2,1-4H3/t7-,8+,9-,10+,11+,15+,17-,18+,19-,20-/m1/s1

> <INCHI_KEY>
FPUXKXIZEIDQKW-VKMVSBOZSA-N

> <FORMULA>
C20H24O9

> <MOLECULAR_WEIGHT>
408.3992

> <EXACT_MASS>
408.142032366

> <JCHEM_ACCEPTOR_COUNT>
6

> <JCHEM_AVERAGE_POLARIZABILITY>
38.35433575411503

> <JCHEM_BIOAVAILABILITY>
1

> <JCHEM_DONOR_COUNT>
2

> <JCHEM_FORMAL_CHARGE>
0

> <JCHEM_GHOSE_FILTER>
1

> <JCHEM_IUPAC>
(1R,3R,6R,7S,8S,10R,11S,13S,16S,17R)-8-tert-butyl-6,17-dihydroxy-16-methyl-2,4,14,19-tetraoxahexacyclo[8.7.2.0¹,¹¹.0³,⁷.0⁷,¹¹.0¹³,¹⁷]nonadecane-5,15,18-trione

> <ALOGPS_LOGP>
1.21

> <JCHEM_LOGP>
0.3367835960000002

> <ALOGPS_LOGS>
-2.13

> <JCHEM_MDDR_LIKE_RULE>
0

> <JCHEM_NUMBER_OF_RINGS>
6

> <JCHEM_PHYSIOLOGICAL_CHARGE>
0

> <JCHEM_PKA>
12.370443322067253

> <JCHEM_PKA_STRONGEST_ACIDIC>
11.767948781258566

> <JCHEM_PKA_STRONGEST_BASIC>
-4.076463268690968

> <JCHEM_POLAR_SURFACE_AREA>
128.59

> <JCHEM_REFRACTIVITY>
90.17450000000001

> <JCHEM_ROTATABLE_BOND_COUNT>
1

> <JCHEM_RULE_OF_FIVE>
1

> <ALOGPS_SOLUBILITY>
3.05e+00 g/l

> <JCHEM_TRADITIONAL_IUPAC>
ginkgolide-A

> <JCHEM_VEBER_RULE>
0

> <DRUGBANK_ID>
DB06743

> <DRUG_GROUPS>
nutraceutical

> <GENERIC_NAME>
Ginkgolide A

> <SYNONYMS>
Ginkgolide-A

$$$$

  Mrv0541 02241213002D          

 30 35  0  0  1  0            999 V2000
    6.0247   -9.1250    0.0000 C   0  0  0  0  0  0  0  0  0  0  0  0
    6.0247   -9.9501    0.0000 O   0  0  0  0  0  0  0  0  0  0  0  0
    6.8094  -10.2050    0.0000 C   0  0  2  0  0  0  0  0  0  0  0  0
    7.2943   -9.5376    0.0000 C   0  0  2  0  0  0  0  0  0  0  0  0
    6.8094   -8.8701    0.0000 C   0  0  2  0  0  0  0  0  0  0  0  0
    8.0789  -10.6176    0.0000 C   0  0  2  0  0  0  0  0  0  0  0  0
    8.0789   -9.7925    0.0000 C   0  0  1  0  0  0  0  0  0  0  0  0
    8.8636  -10.8724    0.0000 C   0  0  2  0  0  0  0  0  0  0  0  0
    9.3485  -10.2050    0.0000 C   0  0  2  0  0  0  0  0  0  0  0  0
    8.8636   -9.5376    0.0000 O   0  0  0  0  0  0  0  0  0  0  0  0
   10.1332  -10.4599    0.0000 O   0  0  0  0  0  0  0  0  0  0  0  0
   10.1332  -11.2849    0.0000 C   0  0  0  0  0  0  0  0  0  0  0  0
    9.3485  -11.5399    0.0000 C   0  0  2  0  0  0  0  0  0  0  0  0
    5.3573   -8.6401    0.0000 O   0  0  0  0  0  0  0  0  0  0  0  0
    7.2943  -10.8724    0.0000 C   0  0  1  0  0  0  0  0  0  0  0  0
    7.5940  -11.2849    0.0000 C   0  0  1  0  0  0  0  0  0  0  0  0
    8.8636  -11.6974    0.0000 C   0  0  1  0  0  0  0  0  0  0  0  0
    8.0789  -11.9524    0.0000 C   0  0  0  0  0  0  0  0  0  0  0  0
   10.7306  -11.7000    0.0000 O   0  0  0  0  0  0  0  0  0  0  0  0
    7.2758   -8.5345    0.0000 O   0  0  0  0  0  0  0  0  0  0  0  0
    6.8996  -11.5872    0.0000 O   0  0  0  0  0  0  0  0  0  0  0  0
    6.7427   -8.0715    0.0000 C   0  0  0  0  0  0  0  0  0  0  0  0
    7.9285   -9.0751    0.0000 C   0  0  0  0  0  0  0  0  0  0  0  0
    7.4251  -10.0679    0.0000 O   0  0  0  0  0  0  0  0  0  0  0  0
    7.9285   -8.4319    0.0000 O   0  0  0  0  0  0  0  0  0  0  0  0
    9.7463  -12.2213    0.0000 O   0  0  0  0  0  0  0  0  0  0  0  0
    8.9213  -12.3891    0.0000 C   0  0  0  0  0  0  0  0  0  0  0  0
    8.2501  -12.8785    0.0000 C   0  0  0  0  0  0  0  0  0  0  0  0
    8.9213  -13.2141    0.0000 C   0  0  0  0  0  0  0  0  0  0  0  0
    9.5785  -12.8785    0.0000 C   0  0  0  0  0  0  0  0  0  0  0  0
  1  2  1  0  0  0  0
  3  2  1  6  0  0  0
  3  4  1  0  0  0  0
  4  5  1  0  0  0  0
  5  1  1  0  0  0  0
  6  7  1  0  0  0  0
  7  4  1  0  0  0  0
  6  8  1  0  0  0  0
  9 10  1  6  0  0  0
 10  7  1  0  0  0  0
  8  9  1  0  0  0  0
  9 11  1  0  0  0  0
 11 12  1  0  0  0  0
 12 13  1  0  0  0  0
 13  8  1  0  0  0  0
  1 14  2  0  0  0  0
  3 15  1  0  0  0  0
 15  6  1  0  0  0  0
  6 16  1  1  0  0  0
  8 17  1  1  0  0  0
 17 18  1  0  0  0  0
 16 18  1  1  0  0  0
 12 19  2  0  0  0  0
  4 20  1  1  0  0  0
 15 21  1  1  0  0  0
  5 22  1  1  0  0  0
  7 23  1  1  0  0  0
 23 24  1  0  0  0  0
 24 16  1  0  0  0  0
 23 25  2  0  0  0  0
 13 26  1  6  0  0  0
 17 27  1  6  0  0  0
 27 28  1  0  0  0  0
 27 29  1  0  0  0  0
 27 30  1  0  0  0  0
M  END
> <DATABASE_ID>
DB06744

> <DATABASE_NAME>
drugbank

> <SMILES>
C[C@@H]1C(=O)O[C@H]2[C@H](O)[C@@]34[C@H]5C[C@@H](C(C)(C)C)[C@@]33[C@@H](O)C(=O)O[C@H]3O[C@@]4(C(=O)O5)[C@@]12O

> <INCHI_IDENTIFIER>
InChI=1S/C20H24O10/c1-6-12(23)28-11-9(21)18-8-5-7(16(2,3)4)17(18)10(22)13(24)29-15(17)30-20(18,14(25)27-8)19(6,11)26/h6-11,15,21-22,26H,5H2,1-4H3/t6-,7+,8-,9+,10+,11+,15+,17+,18+,19-,20-/m1/s1

> <INCHI_KEY>
SQOJOAFXDQDRGF-MMQTXUMRSA-N

> <FORMULA>
C20H24O10

> <MOLECULAR_WEIGHT>
424.3986

> <EXACT_MASS>
424.136946988

> <JCHEM_ACCEPTOR_COUNT>
7

> <JCHEM_AVERAGE_POLARIZABILITY>
39.20144330077305

> <JCHEM_BIOAVAILABILITY>
1

> <JCHEM_DONOR_COUNT>
3

> <JCHEM_FORMAL_CHARGE>
0

> <JCHEM_GHOSE_FILTER>
0

> <JCHEM_IUPAC>
(1R,3R,6R,7S,8S,10R,11R,12R,13S,16S,17R)-8-tert-butyl-6,12,17-trihydroxy-16-methyl-2,4,14,19-tetraoxahexacyclo[8.7.2.0¹,¹¹.0³,⁷.0⁷,¹¹.0¹³,¹⁷]nonadecane-5,15,18-trione

> <ALOGPS_LOGP>
0.49

> <JCHEM_LOGP>
-0.5822125509999996

> <ALOGPS_LOGS>
-1.91

> <JCHEM_MDDR_LIKE_RULE>
0

> <JCHEM_NUMBER_OF_RINGS>
6

> <JCHEM_PHYSIOLOGICAL_CHARGE>
0

> <JCHEM_PKA>
12.305421395496875

> <JCHEM_PKA_STRONGEST_ACIDIC>
11.70994054475649

> <JCHEM_PKA_STRONGEST_BASIC>
-3.4968247045047107

> <JCHEM_POLAR_SURFACE_AREA>
148.82

> <JCHEM_REFRACTIVITY>
91.38199999999999

> <JCHEM_ROTATABLE_BOND_COUNT>
1

> <JCHEM_RULE_OF_FIVE>
1

> <ALOGPS_SOLUBILITY>
5.21e+00 g/l

> <JCHEM_TRADITIONAL_IUPAC>
ginkgolide-B

> <JCHEM_VEBER_RULE>
0

> <DRUGBANK_ID>
DB06744

> <DRUG_GROUPS>
nutraceutical

> <GENERIC_NAME>
ginkgolide-B

$$$$

  Mrv0541 02241213002D          

 31 36  0  0  1  0            999 V2000
    6.0248   -9.1251    0.0000 C   0  0  0  0  0  0  0  0  0  0  0  0
    6.0248   -9.9502    0.0000 O   0  0  0  0  0  0  0  0  0  0  0  0
    6.8094  -10.2051    0.0000 C   0  0  2  0  0  0  0  0  0  0  0  0
    7.2944   -9.5377    0.0000 C   0  0  2  0  0  0  0  0  0  0  0  0
    6.8094   -8.8702    0.0000 C   0  0  2  0  0  0  0  0  0  0  0  0
    8.0790  -10.6176    0.0000 C   0  0  2  0  0  0  0  0  0  0  0  0
    8.0790   -9.7926    0.0000 C   0  0  1  0  0  0  0  0  0  0  0  0
    8.8637  -10.8725    0.0000 C   0  0  2  0  0  0  0  0  0  0  0  0
    9.3486  -10.2051    0.0000 C   0  0  2  0  0  0  0  0  0  0  0  0
    8.8637   -9.5377    0.0000 O   0  0  0  0  0  0  0  0  0  0  0  0
   10.1332  -10.4600    0.0000 O   0  0  0  0  0  0  0  0  0  0  0  0
   10.1332  -11.2850    0.0000 C   0  0  0  0  0  0  0  0  0  0  0  0
    9.3486  -11.5400    0.0000 C   0  0  2  0  0  0  0  0  0  0  0  0
    5.3573   -8.6402    0.0000 O   0  0  0  0  0  0  0  0  0  0  0  0
    7.2944  -10.8725    0.0000 C   0  0  1  0  0  0  0  0  0  0  0  0
    7.5941  -11.2850    0.0000 C   0  0  1  0  0  0  0  0  0  0  0  0
    8.8637  -11.6975    0.0000 C   0  0  1  0  0  0  0  0  0  0  0  0
    8.0790  -11.9525    0.0000 C   0  0  1  0  0  0  0  0  0  0  0  0
   10.7307  -11.7001    0.0000 O   0  0  0  0  0  0  0  0  0  0  0  0
    7.2759   -8.5346    0.0000 O   0  0  0  0  0  0  0  0  0  0  0  0
    6.8996  -11.5873    0.0000 O   0  0  0  0  0  0  0  0  0  0  0  0
    6.7427   -8.0716    0.0000 C   0  0  0  0  0  0  0  0  0  0  0  0
    7.9285   -9.0752    0.0000 C   0  0  0  0  0  0  0  0  0  0  0  0
    7.4251  -10.0680    0.0000 O   0  0  0  0  0  0  0  0  0  0  0  0
    7.9285   -8.4320    0.0000 O   0  0  0  0  0  0  0  0  0  0  0  0
    9.7464  -12.2214    0.0000 O   0  0  0  0  0  0  0  0  0  0  0  0
    8.9213  -12.3892    0.0000 C   0  0  0  0  0  0  0  0  0  0  0  0
    8.4180  -13.0464    0.0000 C   0  0  0  0  0  0  0  0  0  0  0  0
    9.0752  -13.2142    0.0000 C   0  0  0  0  0  0  0  0  0  0  0  0
    9.5786  -12.8786    0.0000 C   0  0  0  0  0  0  0  0  0  0  0  0
    7.5929  -12.5571    0.0000 O   0  0  0  0  0  0  0  0  0  0  0  0
  1  2  1  0  0  0  0
  3  2  1  6  0  0  0
  3  4  1  0  0  0  0
  4  5  1  0  0  0  0
  5  1  1  0  0  0  0
  6  7  1  0  0  0  0
  7  4  1  0  0  0  0
  6  8  1  0  0  0  0
  9 10  1  6  0  0  0
 10  7  1  0  0  0  0
  8  9  1  0  0  0  0
  9 11  1  0  0  0  0
 11 12  1  0  0  0  0
 12 13  1  0  0  0  0
 13  8  1  0  0  0  0
  1 14  2  0  0  0  0
  3 15  1  0  0  0  0
 15  6  1  0  0  0  0
  6 16  1  1  0  0  0
  8 17  1  1  0  0  0
 17 18  1  0  0  0  0
 18 16  1  0  0  0  0
 12 19  2  0  0  0  0
  4 20  1  1  0  0  0
 15 21  1  1  0  0  0
  5 22  1  1  0  0  0
  7 23  1  1  0  0  0
 23 24  1  0  0  0  0
 16 24  1  1  0  0  0
 23 25  2  0  0  0  0
 13 26  1  6  0  0  0
 17 27  1  6  0  0  0
 27 28  1  0  0  0  0
 27 29  1  0  0  0  0
 27 30  1  0  0  0  0
 18 31  1  1  0  0  0
M  END
> <DATABASE_ID>
DB06745

> <DATABASE_NAME>
drugbank

> <SMILES>
C[C@@H]1C(=O)O[C@H]2[C@H](O)[C@]34[C@@H]5OC(=O)[C@]3(O[C@@H]3OC(=O)[C@H](O)[C@]43[C@@H]([C@H]5O)C(C)(C)C)[C@@]12O

> <INCHI_IDENTIFIER>
InChI=1S/C20H24O11/c1-5-12(24)28-11-8(22)18-10-6(21)7(16(2,3)4)17(18)9(23)13(25)30-15(17)31-20(18,14(26)29-10)19(5,11)27/h5-11,15,21-23,27H,1-4H3/t5-,6-,7+,8+,9+,10-,11+,15+,17+,18-,19-,20-/m1/s1

> <INCHI_KEY>
AMOGMTLMADGEOQ-DTDWCABLSA-N

> <FORMULA>
C20H24O11

> <MOLECULAR_WEIGHT>
440.398

> <EXACT_MASS>
440.13186161

> <JCHEM_ACCEPTOR_COUNT>
8

> <JCHEM_AVERAGE_POLARIZABILITY>
40.08999673866784

> <JCHEM_BIOAVAILABILITY>
1

> <JCHEM_DONOR_COUNT>
4

> <JCHEM_FORMAL_CHARGE>
0

> <JCHEM_GHOSE_FILTER>
0

> <JCHEM_IUPAC>
(1R,3R,6R,7S,8S,9R,10S,11R,12R,13S,16S,17R)-8-tert-butyl-6,9,12,17-tetrahydroxy-16-methyl-2,4,14,19-tetraoxahexacyclo[8.7.2.0¹,¹¹.0³,⁷.0⁷,¹¹.0¹³,¹⁷]nonadecane-5,15,18-trione

> <ALOGPS_LOGP>
0.24

> <JCHEM_LOGP>
-1.5791624279999996

> <ALOGPS_LOGS>
-1.69

> <JCHEM_MDDR_LIKE_RULE>
0

> <JCHEM_NUMBER_OF_RINGS>
6

> <JCHEM_PHYSIOLOGICAL_CHARGE>
0

> <JCHEM_PKA>
12.29373297283482

> <JCHEM_PKA_STRONGEST_ACIDIC>
11.70463173471291

> <JCHEM_PKA_STRONGEST_BASIC>
-3.301131039543355

> <JCHEM_POLAR_SURFACE_AREA>
169.04999999999998

> <JCHEM_REFRACTIVITY>
92.66649999999998

> <JCHEM_ROTATABLE_BOND_COUNT>
1

> <JCHEM_RULE_OF_FIVE>
1

> <ALOGPS_SOLUBILITY>
8.99e+00 g/l

> <JCHEM_TRADITIONAL_IUPAC>
ginkgolide-C

> <JCHEM_VEBER_RULE>
0

> <DRUGBANK_ID>
DB06745

> <DRUG_GROUPS>
nutraceutical

> <GENERIC_NAME>
ginkgolide-C

$$$$

  Mrv0541 02241213002D          

 30 35  0  0  1  0            999 V2000
    7.1015   -8.5657    0.0000 C   0  0  0  0  0  0  0  0  0  0  0  0
    7.1015   -9.3908    0.0000 O   0  0  0  0  0  0  0  0  0  0  0  0
    7.8861   -9.6457    0.0000 C   0  0  2  0  0  0  0  0  0  0  0  0
    8.3710   -8.9783    0.0000 C   0  0  2  0  0  0  0  0  0  0  0  0
    7.8861   -8.3108    0.0000 C   0  0  2  0  0  0  0  0  0  0  0  0
    9.1557  -10.0582    0.0000 C   0  0  2  0  0  0  0  0  0  0  0  0
    9.1557   -9.2332    0.0000 C   0  0  1  0  0  0  0  0  0  0  0  0
    9.9403  -10.3131    0.0000 C   0  0  2  0  0  0  0  0  0  0  0  0
   10.4253   -9.6457    0.0000 C   0  0  2  0  0  0  0  0  0  0  0  0
    9.9403   -8.9783    0.0000 O   0  0  0  0  0  0  0  0  0  0  0  0
   11.2099   -9.9006    0.0000 O   0  0  0  0  0  0  0  0  0  0  0  0
   11.2099  -10.7256    0.0000 C   0  0  0  0  0  0  0  0  0  0  0  0
   10.4253  -10.9806    0.0000 C   0  0  2  0  0  0  0  0  0  0  0  0
    6.4340   -8.0808    0.0000 O   0  0  0  0  0  0  0  0  0  0  0  0
    8.3710  -10.3131    0.0000 C   0  0  0  0  0  0  0  0  0  0  0  0
    8.6707  -10.7256    0.0000 C   0  0  1  0  0  0  0  0  0  0  0  0
    9.9403  -11.1381    0.0000 C   0  0  1  0  0  0  0  0  0  0  0  0
    9.1557  -11.3931    0.0000 C   0  0  1  0  0  0  0  0  0  0  0  0
   11.8074  -11.1407    0.0000 O   0  0  0  0  0  0  0  0  0  0  0  0
    8.3526   -7.9752    0.0000 O   0  0  0  0  0  0  0  0  0  0  0  0
    7.8194   -7.5122    0.0000 C   0  0  0  0  0  0  0  0  0  0  0  0
    9.0052   -8.5158    0.0000 C   0  0  0  0  0  0  0  0  0  0  0  0
    8.5018   -9.5086    0.0000 O   0  0  0  0  0  0  0  0  0  0  0  0
    9.0052   -7.8726    0.0000 O   0  0  0  0  0  0  0  0  0  0  0  0
   10.8230  -11.6620    0.0000 O   0  0  0  0  0  0  0  0  0  0  0  0
    9.9980  -11.8298    0.0000 C   0  0  0  0  0  0  0  0  0  0  0  0
    9.4946  -12.4870    0.0000 C   0  0  0  0  0  0  0  0  0  0  0  0
   10.1518  -12.6548    0.0000 C   0  0  0  0  0  0  0  0  0  0  0  0
   10.6552  -12.3192    0.0000 C   0  0  0  0  0  0  0  0  0  0  0  0
    8.6696  -11.9976    0.0000 O   0  0  0  0  0  0  0  0  0  0  0  0
  1  2  1  0  0  0  0
  3  2  1  6  0  0  0
  3  4  1  0  0  0  0
  4  5  1  0  0  0  0
  5  1  1  0  0  0  0
  6  7  1  0  0  0  0
  7  4  1  0  0  0  0
  6  8  1  0  0  0  0
  9 10  1  6  0  0  0
 10  7  1  0  0  0  0
  8  9  1  0  0  0  0
  9 11  1  0  0  0  0
 11 12  1  0  0  0  0
 12 13  1  0  0  0  0
 13  8  1  0  0  0  0
  1 14  2  0  0  0  0
  3 15  1  0  0  0  0
 15  6  1  0  0  0  0
  6 16  1  1  0  0  0
  8 17  1  1  0  0  0
 17 18  1  0  0  0  0
 18 16  1  0  0  0  0
 12 19  2  0  0  0  0
  4 20  1  1  0  0  0
  5 21  1  1  0  0  0
  7 22  1  1  0  0  0
 22 23  1  0  0  0  0
 16 23  1  1  0  0  0
 22 24  2  0  0  0  0
 13 25  1  6  0  0  0
 17 26  1  6  0  0  0
 26 27  1  0  0  0  0
 26 28  1  0  0  0  0
 26 29  1  0  0  0  0
 18 30  1  1  0  0  0
M  END
> <DATABASE_ID>
DB06746

> <DATABASE_NAME>
drugbank

> <SMILES>
C[C@@H]1C(=O)O[C@H]2C[C@]34[C@@H]5OC(=O)[C@]3(O[C@@H]3OC(=O)[C@H](O)[C@]43[C@@H]([C@H]5O)C(C)(C)C)[C@@]12O

> <INCHI_IDENTIFIER>
InChI=1S/C20H24O10/c1-6-12(23)27-7-5-17-11-8(21)9(16(2,3)4)18(17)10(22)13(24)29-15(18)30-20(17,14(25)28-11)19(6,7)26/h6-11,15,21-22,26H,5H2,1-4H3/t6-,7+,8-,9+,10+,11-,15+,17-,18+,19-,20-/m1/s1

> <INCHI_KEY>
LMEHVEUFNRJAAV-UKWFQYJJSA-N

> <FORMULA>
C20H24O10

> <MOLECULAR_WEIGHT>
424.3986

> <EXACT_MASS>
424.136946988

> <JCHEM_ACCEPTOR_COUNT>
7

> <JCHEM_AVERAGE_POLARIZABILITY>
39.25919507586119

> <JCHEM_BIOAVAILABILITY>
1

> <JCHEM_DONOR_COUNT>
3

> <JCHEM_FORMAL_CHARGE>
0

> <JCHEM_GHOSE_FILTER>
0

> <JCHEM_IUPAC>
(1R,3R,6R,7S,8S,9R,10S,11S,13S,16S,17R)-8-tert-butyl-6,9,17-trihydroxy-16-methyl-2,4,14,19-tetraoxahexacyclo[8.7.2.0¹,¹¹.0³,⁷.0⁷,¹¹.0¹³,¹⁷]nonadecane-5,15,18-trione

> <ALOGPS_LOGP>
0.23

> <JCHEM_LOGP>
-0.6601662809999991

> <ALOGPS_LOGS>
-1.79

> <JCHEM_MDDR_LIKE_RULE>
0

> <JCHEM_NUMBER_OF_RINGS>
6

> <JCHEM_PHYSIOLOGICAL_CHARGE>
0

> <JCHEM_PKA>
12.35772521720368

> <JCHEM_PKA_STRONGEST_ACIDIC>
11.76208044040018

> <JCHEM_PKA_STRONGEST_BASIC>
-3.2989872231112054

> <JCHEM_POLAR_SURFACE_AREA>
148.82

> <JCHEM_REFRACTIVITY>
91.459

> <JCHEM_ROTATABLE_BOND_COUNT>
1

> <JCHEM_RULE_OF_FIVE>
1

> <ALOGPS_SOLUBILITY>
6.96e+00 g/l

> <JCHEM_TRADITIONAL_IUPAC>
ginkgolide-J

> <JCHEM_VEBER_RULE>
0

> <DRUGBANK_ID>
DB06746

> <DRUG_GROUPS>
nutraceutical

> <GENERIC_NAME>
ginkgolide-J

$$$$

  Mrv0541 02241213002D          

 30 35  0  0  1  0            999 V2000
    7.1015   -8.5658    0.0000 C   0  0  0  0  0  0  0  0  0  0  0  0
    7.1015   -9.3909    0.0000 O   0  0  0  0  0  0  0  0  0  0  0  0
    7.8862   -9.6458    0.0000 C   0  0  2  0  0  0  0  0  0  0  0  0
    8.3711   -8.9784    0.0000 C   0  0  0  0  0  0  0  0  0  0  0  0
    7.8862   -8.3109    0.0000 C   0  0  2  0  0  0  0  0  0  0  0  0
    9.1558  -10.0583    0.0000 C   0  0  2  0  0  0  0  0  0  0  0  0
    9.1558   -9.2333    0.0000 C   0  0  1  0  0  0  0  0  0  0  0  0
    9.9404  -10.3132    0.0000 C   0  0  2  0  0  0  0  0  0  0  0  0
   10.4254   -9.6458    0.0000 C   0  0  2  0  0  0  0  0  0  0  0  0
    9.9404   -8.9784    0.0000 O   0  0  0  0  0  0  0  0  0  0  0  0
   11.2100   -9.9007    0.0000 O   0  0  0  0  0  0  0  0  0  0  0  0
   11.2100  -10.7257    0.0000 C   0  0  0  0  0  0  0  0  0  0  0  0
   10.4254  -10.9807    0.0000 C   0  0  2  0  0  0  0  0  0  0  0  0
    6.4341   -8.0809    0.0000 O   0  0  0  0  0  0  0  0  0  0  0  0
    8.3711  -10.3132    0.0000 C   0  0  1  0  0  0  0  0  0  0  0  0
    8.6708  -10.7257    0.0000 C   0  0  1  0  0  0  0  0  0  0  0  0
    9.9404  -11.1382    0.0000 C   0  0  1  0  0  0  0  0  0  0  0  0
    9.1558  -11.3932    0.0000 C   0  0  1  0  0  0  0  0  0  0  0  0
   11.8075  -11.1408    0.0000 O   0  0  0  0  0  0  0  0  0  0  0  0
    7.9764  -11.0280    0.0000 O   0  0  0  0  0  0  0  0  0  0  0  0
    7.8195   -7.5123    0.0000 C   0  0  0  0  0  0  0  0  0  0  0  0
    9.0053   -8.5159    0.0000 C   0  0  0  0  0  0  0  0  0  0  0  0
    8.5019   -9.5087    0.0000 O   0  0  0  0  0  0  0  0  0  0  0  0
    9.0053   -7.8727    0.0000 O   0  0  0  0  0  0  0  0  0  0  0  0
   10.8231  -11.6621    0.0000 O   0  0  0  0  0  0  0  0  0  0  0  0
    9.9981  -11.8299    0.0000 C   0  0  0  0  0  0  0  0  0  0  0  0
    9.4947  -12.4871    0.0000 C   0  0  0  0  0  0  0  0  0  0  0  0
   10.1519  -12.6549    0.0000 C   0  0  0  0  0  0  0  0  0  0  0  0
   10.6553  -12.3193    0.0000 C   0  0  0  0  0  0  0  0  0  0  0  0
    8.6697  -11.9978    0.0000 O   0  0  0  0  0  0  0  0  0  0  0  0
  1  2  1  0  0  0  0
  3  2  1  6  0  0  0
  3  4  1  0  0  0  0
  4  5  1  0  0  0  0
  5  1  1  0  0  0  0
  6  7  1  0  0  0  0
  7  4  1  0  0  0  0
  6  8  1  0  0  0  0
  9 10  1  6  0  0  0
 10  7  1  0  0  0  0
  8  9  1  0  0  0  0
  9 11  1  0  0  0  0
 11 12  1  0  0  0  0
 12 13  1  0  0  0  0
 13  8  1  0  0  0  0
  1 14  2  0  0  0  0
  3 15  1  0  0  0  0
 15  6  1  0  0  0  0
  6 16  1  1  0  0  0
  8 17  1  1  0  0  0
 17 18  1  0  0  0  0
 18 16  1  0  0  0  0
 12 19  2  0  0  0  0
 15 20  1  1  0  0  0
  5 21  1  1  0  0  0
  7 22  1  1  0  0  0
 22 23  1  0  0  0  0
 16 23  1  1  0  0  0
 22 24  2  0  0  0  0
 13 25  1  6  0  0  0
 17 26  1  6  0  0  0
 26 27  1  0  0  0  0
 26 28  1  0  0  0  0
 26 29  1  0  0  0  0
 18 30  1  1  0  0  0
M  END
> <DATABASE_ID>
DB06747

> <DATABASE_NAME>
drugbank

> <SMILES>
C[C@H]1C2[C@@H](OC1=O)[C@H](O)[C@]13[C@@H]4OC(=O)[C@]21O[C@@H]1OC(=O)[C@H](O)[C@]31[C@@H]([C@H]4O)C(C)(C)C

> <INCHI_IDENTIFIER>
InChI=1S/C20H24O10/c1-5-6-8(27-13(5)24)10(22)19-12-7(21)9(17(2,3)4)18(19)11(23)14(25)29-16(18)30-20(6,19)15(26)28-12/h5-12,16,21-23H,1-4H3/t5-,6?,7+,8+,9-,10-,11-,12+,16-,18-,19+,20+/m0/s1

> <INCHI_KEY>
KDKROYXEHCYLJQ-FJFAJXJPSA-N

> <FORMULA>
C20H24O10

> <MOLECULAR_WEIGHT>
424.3986

> <EXACT_MASS>
424.136946988

> <JCHEM_ACCEPTOR_COUNT>
7

> <JCHEM_AVERAGE_POLARIZABILITY>
39.37172457890237

> <JCHEM_BIOAVAILABILITY>
1

> <JCHEM_DONOR_COUNT>
3

> <JCHEM_FORMAL_CHARGE>
0

> <JCHEM_GHOSE_FILTER>
0

> <JCHEM_IUPAC>
(1S,3R,6R,7S,8S,9R,10S,11R,12R,13R,16S)-8-tert-butyl-6,9,12-trihydroxy-16-methyl-2,4,14,19-tetraoxahexacyclo[8.7.2.0¹,¹¹.0³,⁷.0⁷,¹¹.0¹³,¹⁷]nonadecane-5,15,18-trione

> <ALOGPS_LOGP>
0.60

> <JCHEM_LOGP>
-0.9239820460000009

> <ALOGPS_LOGS>
-1.73

> <JCHEM_MDDR_LIKE_RULE>
0

> <JCHEM_NUMBER_OF_RINGS>
6

> <JCHEM_PHYSIOLOGICAL_CHARGE>
0

> <JCHEM_PKA>
13.356226311772904

> <JCHEM_PKA_STRONGEST_ACIDIC>
12.046694404213882

> <JCHEM_PKA_STRONGEST_BASIC>
-3.3010627504948387

> <JCHEM_POLAR_SURFACE_AREA>
148.82

> <JCHEM_REFRACTIVITY>
91.5786

> <JCHEM_ROTATABLE_BOND_COUNT>
1

> <JCHEM_RULE_OF_FIVE>
1

> <ALOGPS_SOLUBILITY>
7.96e+00 g/l

> <JCHEM_TRADITIONAL_IUPAC>
ginkgolide-M

> <JCHEM_VEBER_RULE>
0

> <DRUGBANK_ID>
DB06747

> <DRUG_GROUPS>
nutraceutical

> <GENERIC_NAME>
ginkgolide-M

$$$$

  Mrv1572004031622122D          

 79 86  0  0  0  0            999 V2000
   -3.9557   -4.4736    0.0000 C   0  0  1  0  0  0  0  0  0  0  0  0
   -3.9557   -5.2986    0.0000 C   0  0  1  0  0  0  0  0  0  0  0  0
   -4.6682   -5.7069    0.0000 C   0  0  2  0  0  0  0  0  0  0  0  0
   -4.6682   -4.0568    0.0000 O   0  0  0  0  0  0  0  0  0  0  0  0
   -5.3808   -5.2986    0.0000 C   0  0  1  0  0  0  0  0  0  0  0  0
   -5.3808   -4.4736    0.0000 C   0  0  1  0  0  0  0  0  0  0  0  0
   -3.2433   -5.7111    0.0000 O   0  0  0  0  0  0  0  0  0  0  0  0
   -4.6682   -6.5319    0.0000 O   0  0  0  0  0  0  0  0  0  0  0  0
   -6.0932   -5.7111    0.0000 O   0  0  0  0  0  0  0  0  0  0  0  0
   -6.0932   -4.0611    0.0000 C   0  0  0  0  0  0  0  0  0  0  0  0
   -6.8098   -4.4777    0.0000 O   0  0  0  0  0  0  0  0  0  0  0  0
   -3.2402   -4.0631    0.0000 O   0  0  0  0  0  0  0  0  0  0  0  0
    2.4680   -1.5673    0.0000 C   0  0  1  0  0  0  0  0  0  0  0  0
    1.7555   -1.9840    0.0000 C   0  0  1  0  0  0  0  0  0  0  0  0
   -3.2319   -3.2380    0.0000 C   0  0  1  0  0  0  0  0  0  0  0  0
    0.3306   -1.9964    0.0000 C   0  0  2  0  0  0  0  0  0  0  0  0
    1.0390   -1.5755    0.0000 C   0  0  1  0  0  0  0  0  0  0  0  0
   -2.5151   -2.8340    0.0000 C   0  0  1  0  0  0  0  0  0  0  0  0
    2.5266    1.5659    0.0000 C   0  0  1  0  0  0  0  0  0  0  0  0
    1.8140    1.9744    0.0000 C   0  0  1  0  0  0  0  0  0  0  0  0
    2.4680   -0.7423    0.0000 C   0  0  2  0  0  0  0  0  0  0  0  0
   -3.9359   -2.8172    0.0000 C   0  0  2  0  0  0  0  0  0  0  0  0
    0.3390   -2.8214    0.0000 C   0  0  2  0  0  0  0  0  0  0  0  0
    1.8099    2.7951    0.0000 C   0  0  2  0  0  0  0  0  0  0  0  0
    3.2431    1.9744    0.0000 O   0  0  0  0  0  0  0  0  0  0  0  0
   -2.5026   -2.0090    0.0000 O   0  0  0  0  0  0  0  0  0  0  0  0
   -0.3693   -3.2380    0.0000 C   0  0  0  0  0  0  0  0  0  0  0  0
    2.5181    3.2119    0.0000 C   0  0  1  0  0  0  0  0  0  0  0  0
   -3.9318   -1.9964    0.0000 C   0  0  1  0  0  0  0  0  0  0  0  0
    3.2348    2.7994    0.0000 C   0  0  1  0  0  0  0  0  0  0  0  0
    1.7432   -0.3298    0.0000 C   0  0  1  0  0  0  0  0  0  0  0  0
   -3.2152   -1.5923    0.0000 C   0  0  1  0  0  0  0  0  0  0  0  0
    3.2515   -0.4881    0.0000 C   0  0  1  0  0  0  0  0  0  0  0  0
    1.0265   -0.7465    0.0000 C   0  0  0  0  0  0  0  0  0  0  0  0
    3.2431    0.3368    0.0000 C   0  0  1  0  0  0  0  0  0  0  0  0
    2.5223    0.7410    0.0000 O   0  0  0  0  0  0  0  0  0  0  0  0
   -1.7984   -3.2547    0.0000 O   0  0  0  0  0  0  0  0  0  0  0  0
   -1.0859   -2.8340    0.0000 C   0  0  1  0  0  0  0  0  0  0  0  0
    3.2515   -1.8255    0.0000 C   0  0  0  0  0  0  0  0  0  0  0  0
    1.7641   -2.8091    0.0000 C   0  0  0  0  0  0  0  0  0  0  0  0
   -0.3818   -1.5839    0.0000 C   0  0  0  0  0  0  0  0  0  0  0  0
    1.0556   -3.2256    0.0000 C   0  0  0  0  0  0  0  0  0  0  0  0
    3.7348   -1.1590    0.0000 C   0  0  0  0  0  0  0  0  0  0  0  0
    3.9390    4.0493    0.0000 O   0  0  0  0  0  0  0  0  0  0  0  0
    3.9473    3.2159    0.0000 C   0  0  0  0  0  0  0  0  0  0  0  0
   -1.0944   -2.0090    0.0000 C   0  0  0  0  0  0  0  0  0  0  0  0
    6.1016    0.3785    0.0000 C   0  0  0  0  0  0  0  0  0  0  0  0
    5.3806    0.7785    0.0000 C   0  0  0  0  0  0  0  0  0  0  0  0
    1.0973    1.5577    0.0000 O   0  0  0  0  0  0  0  0  0  0  0  0
   -4.6569   -3.2215    0.0000 O   0  0  0  0  0  0  0  0  0  0  0  0
    1.0932    3.2034    0.0000 O   0  0  0  0  0  0  0  0  0  0  0  0
   -4.6443   -1.5798    0.0000 O   0  0  0  0  0  0  0  0  0  0  0  0
    2.5139    4.0369    0.0000 O   0  0  0  0  0  0  0  0  0  0  0  0
    2.4680   -2.3923    0.0000 C   0  0  0  0  0  0  0  0  0  0  0  0
    1.7391    0.4951    0.0000 O   0  0  0  0  0  0  0  0  0  0  0  0
    1.7473   -1.1548    0.0000 C   0  0  0  0  0  0  0  0  0  0  0  0
    0.3181   -1.1673    0.0000 C   0  0  0  0  0  0  0  0  0  0  0  0
    3.9515    0.7619    0.0000 C   0  0  0  0  0  0  0  0  0  0  0  0
   -3.2068   -0.7673    0.0000 C   0  0  0  0  0  0  0  0  0  0  0  0
    4.6723    0.3577    0.0000 C   0  0  0  0  0  0  0  0  0  0  0  0
    3.2307    1.1618    0.0000 C   0  0  0  0  0  0  0  0  0  0  0  0
   -3.9192   -0.3506    0.0000 O   0  0  0  0  0  0  0  0  0  0  0  0
    6.1099   -0.4464    0.0000 C   0  0  0  0  0  0  0  0  0  0  0  0
    6.8098    0.7994    0.0000 C   0  0  0  0  0  0  0  0  0  0  0  0
    1.0390   -2.4006    0.0000 H   0  0  0  0  0  0  0  0  0  0  0  0
    0.3431   -3.6422    0.0000 H   0  0  0  0  0  0  0  0  0  0  0  0
    2.4516    0.0826    0.0000 H   0  0  0  0  0  0  0  0  0  0  0  0
    3.9640   -0.0630    0.0000 H   0  0  0  0  0  0  0  0  0  0  0  0
    4.6493    4.4689    0.0000 C   0  0  2  0  0  0  0  0  0  0  0  0
    5.3695    4.0579    0.0000 O   0  0  0  0  0  0  0  0  0  0  0  0
    6.0777    4.4741    0.0000 C   0  0  0  0  0  0  0  0  0  0  0  0
    6.0737    5.2994    0.0000 C   0  0  1  0  0  0  0  0  0  0  0  0
    5.3552    5.7069    0.0000 C   0  0  1  0  0  0  0  0  0  0  0  0
    4.6408    5.2890    0.0000 C   0  0  1  0  0  0  0  0  0  0  0  0
    3.9231    5.6959    0.0000 O   0  0  0  0  0  0  0  0  0  0  0  0
    5.3499    6.5319    0.0000 O   0  0  0  0  0  0  0  0  0  0  0  0
    6.7855    5.7163    0.0000 O   0  0  0  0  0  0  0  0  0  0  0  0
   -0.3617   -4.0631    0.0000 C   0  0  0  0  0  0  0  0  0  0  0  0
   -1.0859   -3.6464    0.0000 C   0  0  0  0  0  0  0  0  0  0  0  0
  3  2  1  0  0  0  0
  4  1  1  0  0  0  0
  5  6  1  0  0  0  0
  6  4  1  0  0  0  0
  2  7  1  6  0  0  0
  3  8  1  1  0  0  0
  5  9  1  6  0  0  0
  6 10  1  1  0  0  0
 11 10  1  0  0  0  0
  3  5  1  0  0  0  0
  2  1  1  0  0  0  0
  1 12  1  1  0  0  0
 24 20  1  0  0  0  0
 15 12  1  6  0  0  0
 25 19  1  0  0  0  0
 26 18  1  0  0  0  0
 27 23  1  0  0  0  0
 28 30  1  0  0  0  0
 29 32  1  0  0  0  0
 30 25  1  0  0  0  0
 31 21  1  0  0  0  0
 32 26  1  0  0  0  0
 33 21  1  0  0  0  0
 34 31  1  0  0  0  0
 35 33  1  0  0  0  0
 35 36  1  1  0  0  0
 38 37  1  1  0  0  0
 38 27  1  0  0  0  0
 39 13  1  0  0  0  0
 40 14  1  0  0  0  0
 41 16  1  0  0  0  0
 42 40  1  0  0  0  0
 43 39  1  0  0  0  0
 44 45  1  0  0  0  0
 30 45  1  1  0  0  0
 46 41  1  0  0  0  0
 47 48  2  0  0  0  0
 48 60  1  0  0  0  0
 20 49  1  6  0  0  0
 22 50  1  1  0  0  0
 24 51  1  1  0  0  0
 29 52  1  6  0  0  0
 28 53  1  6  0  0  0
 13 54  1  6  0  0  0
 31 55  1  1  0  0  0
 14 56  1  1  0  0  0
 16 57  1  1  0  0  0
 58 35  1  0  0  0  0
 32 59  1  1  0  0  0
 60 58  1  0  0  0  0
 61 35  1  0  0  0  0
 62 59  1  0  0  0  0
 63 47  1  0  0  0  0
 64 47  1  0  0  0  0
 17 65  1  6  0  0  0
 23 66  1  6  0  0  0
 21 67  1  1  0  0  0
 33 68  1  6  0  0  0
 33 43  1  0  0  0  0
 17 34  1  0  0  0  0
 16 23  1  0  0  0  0
 46 38  1  0  0  0  0
 24 28  1  0  0  0  0
 22 29  1  0  0  0  0
 69 44  1  1  0  0  0
 69 70  1  0  0  0  0
 14 13  1  0  0  0  0
 15 18  1  0  0  0  0
 16 17  1  0  0  0  0
 17 14  1  0  0  0  0
 69 74  1  0  0  0  0
 70 71  1  0  0  0  0
 71 72  1  0  0  0  0
 72 73  1  0  0  0  0
 73 74  1  0  0  0  0
 18 37  1  1  0  0  0
 74 75  1  6  0  0  0
 19 36  1  1  0  0  0
 73 76  1  1  0  0  0
 72 77  1  1  0  0  0
 20 19  1  0  0  0  0
 21 13  1  0  0  0  0
 22 15  1  0  0  0  0
 27 78  1  0  0  0  0
 23 42  1  0  0  0  0
 27 79  1  0  0  0  0
M  END
> <DATABASE_ID>
DB06748

> <DATABASE_NAME>
drugbank

> <SMILES>
[H][C@@]1(CC[C@]2(C)[C@]1([H])[C@H](O)C[C@]1([H])[C@@]3(C)CC[C@H](O[C@@H]4O[C@H](CO)[C@@H](O)[C@H](O)[C@H]4O[C@@H]4O[C@H](CO)[C@@H](O)[C@H](O)[C@H]4O)C(C)(C)[C@]3([H])CC[C@@]21C)[C@](C)(CCC=C(C)C)O[C@@H]1O[C@H](CO[C@@H]2OC[C@H](O)[C@H](O)[C@H]2O)[C@@H](O)[C@H](O)[C@H]1O

> <INCHI_IDENTIFIER>
InChI=1S/C53H90O22/c1-23(2)10-9-14-53(8,75-47-43(67)39(63)37(61)29(72-47)22-69-45-41(65)34(58)26(57)21-68-45)24-11-16-52(7)33(24)25(56)18-31-50(5)15-13-32(49(3,4)30(50)12-17-51(31,52)6)73-48-44(40(64)36(60)28(20-55)71-48)74-46-42(66)38(62)35(59)27(19-54)70-46/h10,24-48,54-67H,9,11-22H2,1-8H3/t24-,25+,26-,27+,28+,29+,30-,31+,32-,33-,34-,35+,36+,37+,38-,39-,40-,41+,42+,43+,44+,45-,46-,47-,48-,50-,51+,52+,53-/m0/s1

> <INCHI_KEY>
NODILNFGTFIURN-GZPRDHCNSA-N

> <FORMULA>
C53H90O22

> <MOLECULAR_WEIGHT>
1079.281

> <EXACT_MASS>
1078.592374538

> <JCHEM_ACCEPTOR_COUNT>
22

> <JCHEM_ATOM_COUNT>
165

> <JCHEM_AVERAGE_POLARIZABILITY>
116.98510814442241

> <JCHEM_BIOAVAILABILITY>
0

> <JCHEM_DONOR_COUNT>
14

> <JCHEM_FORMAL_CHARGE>
0

> <JCHEM_GHOSE_FILTER>
0

> <JCHEM_IUPAC>
(2S,3R,4S,5S,6R)-2-{[(2R,3R,4S,5S,6R)-4,5-dihydroxy-2-{[(1R,2R,5S,7R,10R,11R,14S,15R,16R)-16-hydroxy-2,6,6,10,11-pentamethyl-14-[(2S)-6-methyl-2-{[(2S,3R,4S,5S,6R)-3,4,5-trihydroxy-6-({[(2S,3R,4S,5S)-3,4,5-trihydroxyoxan-2-yl]oxy}methyl)oxan-2-yl]oxy}hept-5-en-2-yl]tetracyclo[8.7.0.0²,⁷.0¹¹,¹⁵]heptadecan-5-yl]oxy}-6-(hydroxymethyl)oxan-3-yl]oxy}-6-(hydroxymethyl)oxane-3,4,5-triol

> <ALOGPS_LOGP>
-0.02

> <JCHEM_LOGP>
-0.9210698356666672

> <ALOGPS_LOGS>
-3.14

> <JCHEM_MDDR_LIKE_RULE>
1

> <JCHEM_NUMBER_OF_RINGS>
8

> <JCHEM_PHYSIOLOGICAL_CHARGE>
0

> <JCHEM_PKA>
12.186237607957729

> <JCHEM_PKA_STRONGEST_ACIDIC>
11.752724815252483

> <JCHEM_PKA_STRONGEST_BASIC>
-3.6486743719488306

> <JCHEM_POLAR_SURFACE_AREA>
357.06000000000006

> <JCHEM_REFRACTIVITY>
260.9266000000001

> <JCHEM_ROTATABLE_BOND_COUNT>
15

> <JCHEM_RULE_OF_FIVE>
0

> <ALOGPS_SOLUBILITY>
7.84e-01 g/l

> <JCHEM_TRADITIONAL_IUPAC>
(2S,3R,4S,5S,6R)-2-{[(2R,3R,4S,5S,6R)-4,5-dihydroxy-2-{[(1R,2R,5S,7R,10R,11R,14S,15R,16R)-16-hydroxy-2,6,6,10,11-pentamethyl-14-[(2S)-6-methyl-2-{[(2S,3R,4S,5S,6R)-3,4,5-trihydroxy-6-({[(2S,3R,4S,5S)-3,4,5-trihydroxyoxan-2-yl]oxy}methyl)oxan-2-yl]oxy}hept-5-en-2-yl]tetracyclo[8.7.0.0²,⁷.0¹¹,¹⁵]heptadecan-5-yl]oxy}-6-(hydroxymethyl)oxan-3-yl]oxy}-6-(hydroxymethyl)oxane-3,4,5-triol

> <JCHEM_VEBER_RULE>
0

> <DRUGBANK_ID>
DB06748

> <DRUG_GROUPS>
nutraceutical

> <GENERIC_NAME>
Ginsenoside C

> <SYNONYMS>
ginsenoside Rb2

$$$$

  Mrv1902 03141921222D          

 81 88  0  0  0  0            999 V2000
   -3.9557   -4.4736    0.0000 C   0  0  1  0  0  0  0  0  0  0  0  0
   -3.9557   -5.2986    0.0000 C   0  0  1  0  0  0  0  0  0  0  0  0
   -4.6682   -5.7069    0.0000 C   0  0  2  0  0  0  0  0  0  0  0  0
   -4.6682   -4.0568    0.0000 O   0  0  0  0  0  0  0  0  0  0  0  0
   -5.3808   -5.2986    0.0000 C   0  0  1  0  0  0  0  0  0  0  0  0
   -5.3808   -4.4736    0.0000 C   0  0  1  0  0  0  0  0  0  0  0  0
   -3.2433   -5.7111    0.0000 O   0  0  0  0  0  0  0  0  0  0  0  0
   -4.6682   -6.5319    0.0000 O   0  0  0  0  0  0  0  0  0  0  0  0
   -6.0932   -5.7111    0.0000 O   0  0  0  0  0  0  0  0  0  0  0  0
   -6.0932   -4.0611    0.0000 C   0  0  0  0  0  0  0  0  0  0  0  0
   -6.8098   -4.4777    0.0000 O   0  0  0  0  0  0  0  0  0  0  0  0
   -3.2402   -4.0631    0.0000 O   0  0  0  0  0  0  0  0  0  0  0  0
    2.4680   -1.5673    0.0000 C   0  0  1  0  0  0  0  0  0  0  0  0
    1.7555   -1.9840    0.0000 C   0  0  1  0  0  0  0  0  0  0  0  0
   -3.2319   -3.2380    0.0000 C   0  0  1  0  0  0  0  0  0  0  0  0
    0.3306   -1.9964    0.0000 C   0  0  2  0  0  0  0  0  0  0  0  0
    1.0390   -1.5755    0.0000 C   0  0  1  0  0  0  0  0  0  0  0  0
   -2.5151   -2.8340    0.0000 C   0  0  1  0  0  0  0  0  0  0  0  0
    2.5266    1.5659    0.0000 C   0  0  1  0  0  0  0  0  0  0  0  0
    1.8140    1.9744    0.0000 C   0  0  1  0  0  0  0  0  0  0  0  0
    2.4680   -0.7423    0.0000 C   0  0  2  0  0  0  0  0  0  0  0  0
   -3.9359   -2.8172    0.0000 C   0  0  2  0  0  0  0  0  0  0  0  0
    0.3390   -2.8214    0.0000 C   0  0  2  0  0  0  0  0  0  0  0  0
    1.8099    2.7951    0.0000 C   0  0  2  0  0  0  0  0  0  0  0  0
    3.2431    1.9744    0.0000 O   0  0  0  0  0  0  0  0  0  0  0  0
   -2.5026   -2.0090    0.0000 O   0  0  0  0  0  0  0  0  0  0  0  0
   -0.3693   -3.2380    0.0000 C   0  0  0  0  0  0  0  0  0  0  0  0
    2.5181    3.2119    0.0000 C   0  0  1  0  0  0  0  0  0  0  0  0
   -3.9318   -1.9964    0.0000 C   0  0  1  0  0  0  0  0  0  0  0  0
    3.2348    2.7994    0.0000 C   0  0  1  0  0  0  0  0  0  0  0  0
    1.7432   -0.3298    0.0000 C   0  0  1  0  0  0  0  0  0  0  0  0
   -3.2152   -1.5923    0.0000 C   0  0  1  0  0  0  0  0  0  0  0  0
    3.2515   -0.4881    0.0000 C   0  0  1  0  0  0  0  0  0  0  0  0
    1.0265   -0.7465    0.0000 C   0  0  0  0  0  0  0  0  0  0  0  0
    3.2431    0.3368    0.0000 C   0  0  0  0  0  0  0  0  0  0  0  0
    2.5223    0.7410    0.0000 O   0  0  0  0  0  0  0  0  0  0  0  0
   -1.7984   -3.2547    0.0000 O   0  0  0  0  0  0  0  0  0  0  0  0
   -1.0859   -2.8340    0.0000 C   0  0  1  0  0  0  0  0  0  0  0  0
    3.2515   -1.8255    0.0000 C   0  0  0  0  0  0  0  0  0  0  0  0
    1.7641   -2.8091    0.0000 C   0  0  0  0  0  0  0  0  0  0  0  0
   -0.3818   -1.5839    0.0000 C   0  0  0  0  0  0  0  0  0  0  0  0
    1.0556   -3.2256    0.0000 C   0  0  0  0  0  0  0  0  0  0  0  0
    3.7348   -1.1590    0.0000 C   0  0  0  0  0  0  0  0  0  0  0  0
    3.9390    4.0493    0.0000 O   0  0  0  0  0  0  0  0  0  0  0  0
    3.9473    3.2159    0.0000 C   0  0  0  0  0  0  0  0  0  0  0  0
   -1.0944   -2.0090    0.0000 C   0  0  0  0  0  0  0  0  0  0  0  0
    6.1016    0.3785    0.0000 C   0  0  0  0  0  0  0  0  0  0  0  0
    5.3806    0.7785    0.0000 C   0  0  0  0  0  0  0  0  0  0  0  0
    1.0973    1.5577    0.0000 O   0  0  0  0  0  0  0  0  0  0  0  0
   -4.6569   -3.2215    0.0000 O   0  0  0  0  0  0  0  0  0  0  0  0
    1.0932    3.2034    0.0000 O   0  0  0  0  0  0  0  0  0  0  0  0
   -4.6443   -1.5798    0.0000 O   0  0  0  0  0  0  0  0  0  0  0  0
    2.5139    4.0369    0.0000 O   0  0  0  0  0  0  0  0  0  0  0  0
    2.4680   -2.3923    0.0000 C   0  0  0  0  0  0  0  0  0  0  0  0
    1.7391    0.4951    0.0000 O   0  0  0  0  0  0  0  0  0  0  0  0
    1.7473   -1.1548    0.0000 C   0  0  0  0  0  0  0  0  0  0  0  0
    0.3181   -1.1673    0.0000 C   0  0  0  0  0  0  0  0  0  0  0  0
    3.9515    0.7619    0.0000 C   0  0  0  0  0  0  0  0  0  0  0  0
   -3.2068   -0.7673    0.0000 C   0  0  0  0  0  0  0  0  0  0  0  0
    4.6723    0.3577    0.0000 C   0  0  0  0  0  0  0  0  0  0  0  0
    3.2307    1.1618    0.0000 C   0  0  0  0  0  0  0  0  0  0  0  0
   -3.9192   -0.3506    0.0000 O   0  0  0  0  0  0  0  0  0  0  0  0
    6.1099   -0.4464    0.0000 C   0  0  0  0  0  0  0  0  0  0  0  0
    6.8098    0.7994    0.0000 C   0  0  0  0  0  0  0  0  0  0  0  0
    1.0390   -2.4006    0.0000 H   0  0  0  0  0  0  0  0  0  0  0  0
    0.3431   -3.6422    0.0000 H   0  0  0  0  0  0  0  0  0  0  0  0
    2.4516    0.0826    0.0000 H   0  0  0  0  0  0  0  0  0  0  0  0
    3.9640   -0.0630    0.0000 H   0  0  0  0  0  0  0  0  0  0  0  0
    4.6493    4.4689    0.0000 C   0  0  2  0  0  0  0  0  0  0  0  0
    5.3695    4.0579    0.0000 O   0  0  0  0  0  0  0  0  0  0  0  0
    6.0777    4.4741    0.0000 C   0  0  1  0  0  0  0  0  0  0  0  0
    6.0737    5.2994    0.0000 C   0  0  2  0  0  0  0  0  0  0  0  0
    5.3552    5.7069    0.0000 C   0  0  1  0  0  0  0  0  0  0  0  0
    4.6408    5.2890    0.0000 C   0  0  1  0  0  0  0  0  0  0  0  0
    3.9231    5.6959    0.0000 O   0  0  0  0  0  0  0  0  0  0  0  0
    5.3499    6.5319    0.0000 O   0  0  0  0  0  0  0  0  0  0  0  0
    6.7855    5.7163    0.0000 O   0  0  0  0  0  0  0  0  0  0  0  0
    6.7948    4.0660    0.0000 C   0  0  0  0  0  0  0  0  0  0  0  0
    6.7998    3.2410    0.0000 O   0  0  0  0  0  0  0  0  0  0  0  0
   -0.3617   -4.0631    0.0000 C   0  0  0  0  0  0  0  0  0  0  0  0
   -1.0859   -3.6464    0.0000 C   0  0  0  0  0  0  0  0  0  0  0  0
  3  2  1  0  0  0  0
  4  1  1  0  0  0  0
  5  6  1  0  0  0  0
  6  4  1  0  0  0  0
  2  7  1  6  0  0  0
  3  8  1  1  0  0  0
  5  9  1  6  0  0  0
  6 10  1  1  0  0  0
 11 10  1  0  0  0  0
  3  5  1  0  0  0  0
  2  1  1  0  0  0  0
  1 12  1  1  0  0  0
 24 20  1  0  0  0  0
 15 12  1  6  0  0  0
 25 19  1  0  0  0  0
 26 18  1  0  0  0  0
 27 23  1  0  0  0  0
 28 30  1  0  0  0  0
 29 32  1  0  0  0  0
 30 25  1  0  0  0  0
 31 21  1  0  0  0  0
 32 26  1  0  0  0  0
 33 21  1  0  0  0  0
 34 31  1  0  0  0  0
 35 33  1  0  0  0  0
 35 36  1  1  0  0  0
 38 37  1  1  0  0  0
 38 27  1  0  0  0  0
 39 13  1  0  0  0  0
 40 14  1  0  0  0  0
 41 16  1  0  0  0  0
 42 40  1  0  0  0  0
 43 39  1  0  0  0  0
 44 45  1  0  0  0  0
 30 45  1  1  0  0  0
 46 41  1  0  0  0  0
 47 48  2  0  0  0  0
 48 60  1  0  0  0  0
 20 49  1  6  0  0  0
 22 50  1  1  0  0  0
 24 51  1  1  0  0  0
 29 52  1  6  0  0  0
 28 53  1  6  0  0  0
 13 54  1  6  0  0  0
 31 55  1  1  0  0  0
 14 56  1  1  0  0  0
 16 57  1  1  0  0  0
 58 35  1  0  0  0  0
 32 59  1  1  0  0  0
 60 58  1  0  0  0  0
 61 35  1  0  0  0  0
 62 59  1  0  0  0  0
 63 47  1  0  0  0  0
 64 47  1  0  0  0  0
 17 65  1  6  0  0  0
 23 66  1  6  0  0  0
 21 67  1  1  0  0  0
 33 68  1  6  0  0  0
 33 43  1  0  0  0  0
 17 34  1  0  0  0  0
 16 23  1  0  0  0  0
 46 38  1  0  0  0  0
 24 28  1  0  0  0  0
 22 29  1  0  0  0  0
 69 44  1  1  0  0  0
 69 70  1  0  0  0  0
 14 13  1  0  0  0  0
 15 18  1  0  0  0  0
 16 17  1  0  0  0  0
 17 14  1  0  0  0  0
 69 74  1  0  0  0  0
 70 71  1  0  0  0  0
 71 72  1  0  0  0  0
 72 73  1  0  0  0  0
 73 74  1  0  0  0  0
 18 37  1  1  0  0  0
 74 75  1  6  0  0  0
 19 36  1  1  0  0  0
 73 76  1  1  0  0  0
 72 77  1  6  0  0  0
 20 19  1  0  0  0  0
 71 78  1  1  0  0  0
 21 13  1  0  0  0  0
 78 79  1  0  0  0  0
 22 15  1  0  0  0  0
 27 80  1  0  0  0  0
 23 42  1  0  0  0  0
 27 81  1  0  0  0  0
M  END
> <DATABASE_ID>
DB06749

> <DATABASE_NAME>
drugbank

> <SMILES>
[H][C@@]1(CC[C@]2(C)[C@]1([H])[C@H](O)C[C@]1([H])[C@@]3(C)CC[C@H](O[C@@H]4O[C@H](CO)[C@@H](O)[C@H](O)[C@H]4O[C@@H]4O[C@H](CO)[C@@H](O)[C@H](O)[C@H]4O)C(C)(C)[C@]3([H])CC[C@@]21C)C(C)(CCC=C(C)C)O[C@@H]1O[C@H](CO[C@@H]2O[C@H](CO)[C@@H](O)[C@H](O)[C@H]2O)[C@@H](O)[C@H](O)[C@H]1O

> <INCHI_IDENTIFIER>
InChI=1S/C54H92O23/c1-23(2)10-9-14-54(8,77-48-44(69)40(65)37(62)29(74-48)22-70-46-42(67)38(63)34(59)26(19-55)71-46)24-11-16-53(7)33(24)25(58)18-31-51(5)15-13-32(50(3,4)30(51)12-17-52(31,53)6)75-49-45(41(66)36(61)28(21-57)73-49)76-47-43(68)39(64)35(60)27(20-56)72-47/h10,24-49,55-69H,9,11-22H2,1-8H3/t24-,25+,26+,27+,28+,29+,30-,31+,32-,33-,34+,35+,36+,37+,38-,39-,40-,41-,42+,43+,44+,45+,46+,47-,48-,49-,51-,52+,53+,54-/m0/s1

> <INCHI_KEY>
GZYPWOGIYAIIPV-JBDTYSNRSA-N

> <FORMULA>
C54H92O23

> <MOLECULAR_WEIGHT>
1109.307

> <EXACT_MASS>
1108.602939222

> <JCHEM_ACCEPTOR_COUNT>
23

> <JCHEM_ATOM_COUNT>
169

> <JCHEM_AVERAGE_POLARIZABILITY>
119.84152681553071

> <JCHEM_BIOAVAILABILITY>
0

> <JCHEM_DONOR_COUNT>
15

> <JCHEM_FORMAL_CHARGE>
0

> <JCHEM_GHOSE_FILTER>
0

> <JCHEM_IUPAC>
(2S,3R,4S,5S,6R)-2-{[(2R,3R,4S,5S,6R)-2-{[(1S,3aR,3bR,5aR,7S,9aR,9bR,11R,11aR)-11-hydroxy-3a,3b,6,6,9a-pentamethyl-1-(6-methyl-2-{[(2S,3R,4S,5S,6R)-3,4,5-trihydroxy-6-({[(2R,3R,4S,5S,6R)-3,4,5-trihydroxy-6-(hydroxymethyl)oxan-2-yl]oxy}methyl)oxan-2-yl]oxy}hept-5-en-2-yl)-hexadecahydro-1H-cyclopenta[a]phenanthren-7-yl]oxy}-4,5-dihydroxy-6-(hydroxymethyl)oxan-3-yl]oxy}-6-(hydroxymethyl)oxane-3,4,5-triol

> <ALOGPS_LOGP>
-0.24

> <JCHEM_LOGP>
-1.5514047776666662

> <ALOGPS_LOGS>
-3.02

> <JCHEM_MDDR_LIKE_RULE>
1

> <JCHEM_NUMBER_OF_RINGS>
8

> <JCHEM_PHYSIOLOGICAL_CHARGE>
0

> <JCHEM_PKA>
12.18513442188506

> <JCHEM_PKA_STRONGEST_ACIDIC>
11.751605954439547

> <JCHEM_PKA_STRONGEST_BASIC>
-3.648674371948831

> <JCHEM_POLAR_SURFACE_AREA>
377.2900000000001

> <JCHEM_REFRACTIVITY>
266.8891000000001

> <JCHEM_ROTATABLE_BOND_COUNT>
16

> <JCHEM_RULE_OF_FIVE>
0

> <ALOGPS_SOLUBILITY>
1.07e+00 g/l

> <JCHEM_TRADITIONAL_IUPAC>
[(1R,2R,6R,10S,11R,15R,17R)-13-benzyl-6-hydroxy-4,17-dimethyl-5-oxo-15-(prop-1-en-2-yl)-12,14,18-trioxapentacyclo[11.4.1.0^{1,10}.0^{2,6}.0^{11,15}]octadeca-3,8-dien-8-yl]methyl 2-(4-hydroxy-3-methoxyphenyl)acetate

> <JCHEM_VEBER_RULE>
0

> <DRUGBANK_ID>
DB06749

> <DRUG_GROUPS>
nutraceutical

> <GENERIC_NAME>
Ginsenoside Rb1

> <SYNONYMS>
Arasaponin E1; GRb 1; Gynosaponin C; Gypenoside III; Panax saponin E; Pseudoginsenoside D; Sanchinoside E1

$$$$
Ginsenoside Rg1
  Mrv1572001071617252D          

 56 61  0  0  1  0            999 V2000
    5.1025   -2.7311    0.0000 O   0  0  0  0  0  0  0  0  0  0  0  0
    5.8269    1.8636    0.0000 O   0  0  0  0  0  0  0  0  0  0  0  0
    7.8347    2.4458    0.0000 O   0  0  0  0  0  0  0  0  0  0  0  0
    2.0920   -1.8922    0.0000 O   0  0  0  0  0  0  0  0  0  0  0  0
    6.5314   -2.7257    0.0000 O   0  0  0  0  0  0  0  0  0  0  0  0
    8.8982    3.4001    0.0000 O   0  0  0  0  0  0  0  0  0  0  0  0
    5.1088   -4.3812    0.0000 O   0  0  0  0  0  0  0  0  0  0  0  0
    6.5410   -5.2007    0.0000 O   0  0  0  0  0  0  0  0  0  0  0  0
    8.9367    1.2177    0.0000 O   0  0  0  0  0  0  0  0  0  0  0  0
    7.9668   -4.3702    0.0000 O   0  0  0  0  0  0  0  0  0  0  0  0
   10.5512    1.5580    0.0000 O   0  0  0  0  0  0  0  0  0  0  0  0
   11.0638    3.1263    0.0000 O   0  0  0  0  0  0  0  0  0  0  0  0
    8.6765   -3.1300    0.0000 O   0  0  0  0  0  0  0  0  0  0  0  0
    9.4109    4.9686    0.0000 O   0  0  0  0  0  0  0  0  0  0  0  0
    5.8269   -0.6115    0.0000 C   0  0  1  0  0  0  0  0  0  0  0  0
    6.5414   -0.1990    0.0000 C   0  0  1  0  0  0  0  0  0  0  0  0
    5.1125   -0.1990    0.0000 C   0  0  1  0  0  0  0  0  0  0  0  0
    4.3617   -0.6171    0.0000 C   0  0  2  0  0  0  0  0  0  0  0  0
    6.5414    0.6260    0.0000 C   0  0  1  0  0  0  0  0  0  0  0  0
    4.3550   -1.4765    0.0000 C   0  0  1  0  0  0  0  0  0  0  0  0
    5.8402   -1.4708    0.0000 C   0  0  0  0  0  0  0  0  0  0  0  0
    5.1125    0.6260    0.0000 C   0  0  0  0  0  0  0  0  0  0  0  0
    7.3220    0.8774    0.0000 C   0  0  2  0  0  0  0  0  0  0  0  0
    5.8269    1.0385    0.0000 C   0  0  1  0  0  0  0  0  0  0  0  0
    7.3220   -0.4504    0.0000 C   0  0  0  0  0  0  0  0  0  0  0  0
    5.0993   -1.9062    0.0000 C   0  0  2  0  0  0  0  0  0  0  0  0
    3.5833   -1.9300    0.0000 C   0  0  0  0  0  0  0  0  0  0  0  0
    7.8035    0.2135    0.0000 C   0  0  0  0  0  0  0  0  0  0  0  0
    3.5970   -0.1518    0.0000 C   0  0  0  0  0  0  0  0  0  0  0  0
    6.3573   -1.2435    0.0000 C   0  0  0  0  0  0  0  0  0  0  0  0
    6.8236   -0.9742    0.0000 C   0  0  0  0  0  0  0  0  0  0  0  0
    4.3681    0.2078    0.0000 C   0  0  0  0  0  0  0  0  0  0  0  0
    2.8081   -1.4825    0.0000 C   0  0  2  0  0  0  0  0  0  0  0  0
    7.5784    1.6617    0.0000 C   0  0  2  0  0  0  0  0  0  0  0  0
    2.8150   -0.5873    0.0000 C   0  0  0  0  0  0  0  0  0  0  0  0
    3.1736   -2.6461    0.0000 C   0  0  0  0  0  0  0  0  0  0  0  0
    3.9985   -2.6429    0.0000 C   0  0  0  0  0  0  0  0  0  0  0  0
    8.3625    1.4053    0.0000 C   0  0  0  0  0  0  0  0  0  0  0  0
    6.7942    1.9179    0.0000 C   0  0  0  0  0  0  0  0  0  0  0  0
    5.8185   -3.1409    0.0000 C   0  0  2  0  0  0  0  0  0  0  0  0
    8.5327    0.5981    0.0000 C   0  0  0  0  0  0  0  0  0  0  0  0
    8.6420    2.6160    0.0000 C   0  0  2  0  0  0  0  0  0  0  0  0
    5.8217   -3.9659    0.0000 C   0  0  1  0  0  0  0  0  0  0  0  0
    6.5378   -4.3757    0.0000 C   0  0  2  0  0  0  0  0  0  0  0  0
    9.1929    2.0019    0.0000 C   0  0  1  0  0  0  0  0  0  0  0  0
    7.2475   -3.1354    0.0000 C   0  0  1  0  0  0  0  0  0  0  0  0
    9.3169    0.3417    0.0000 C   0  0  0  0  0  0  0  0  0  0  0  0
    7.2507   -3.9604    0.0000 C   0  0  1  0  0  0  0  0  0  0  0  0
   10.0002    2.1720    0.0000 C   0  0  2  0  0  0  0  0  0  0  0  0
    9.7055    3.5703    0.0000 C   0  0  1  0  0  0  0  0  0  0  0  0
   10.2565    2.9562    0.0000 C   0  0  1  0  0  0  0  0  0  0  0  0
    7.9604   -2.7202    0.0000 C   0  0  0  0  0  0  0  0  0  0  0  0
    9.4870   -0.4656    0.0000 C   0  0  0  0  0  0  0  0  0  0  0  0
    9.9618    4.3545    0.0000 C   0  0  0  0  0  0  0  0  0  0  0  0
   10.2712   -0.7218    0.0000 C   0  0  0  0  0  0  0  0  0  0  0  0
    8.8730   -1.0165    0.0000 C   0  0  0  0  0  0  0  0  0  0  0  0
 26  1  1  6  0  0  0
 40  1  1  6  0  0  0
 24  2  1  1  0  0  0
 34  3  1  1  0  0  0
 42  3  1  6  0  0  0
 33  4  1  1  0  0  0
  5 40  1  0  0  0  0
  5 46  1  0  0  0  0
  6 42  1  0  0  0  0
  6 50  1  0  0  0  0
 43  7  1  1  0  0  0
 44  8  1  6  0  0  0
 45  9  1  1  0  0  0
 48 10  1  1  0  0  0
 49 11  1  6  0  0  0
 51 12  1  1  0  0  0
 13 52  1  0  0  0  0
 14 54  1  0  0  0  0
 15 16  1  0  0  0  0
 17 15  1  0  0  0  0
 15 21  1  0  0  0  0
 15 30  1  1  0  0  0
 16 19  1  0  0  0  0
 16 25  1  0  0  0  0
 16 31  1  6  0  0  0
 18 17  1  0  0  0  0
 17 22  1  1  0  0  0
 20 18  1  1  0  0  0
 18 29  1  0  0  0  0
 18 32  1  1  0  0  0
 19 23  1  6  0  0  0
 19 24  1  0  0  0  0
 20 26  1  0  0  0  0
 20 27  1  0  0  0  0
 26 21  1  0  0  0  0
 24 22  1  0  0  0  0
 23 28  1  0  0  0  0
 23 34  1  1  0  0  0
 25 28  1  0  0  0  0
 27 33  1  0  0  0  0
 27 36  1  0  0  0  0
 27 37  1  0  0  0  0
 29 35  1  0  0  0  0
 33 35  1  0  0  0  0
 34 38  1  0  0  0  0
 34 39  1  6  0  0  0
 38 41  1  0  0  0  0
 40 43  1  0  0  0  0
 41 47  1  0  0  0  0
 42 45  1  0  0  0  0
 43 44  1  0  0  0  0
 44 48  1  0  0  0  0
 45 49  1  0  0  0  0
 46 48  1  0  0  0  0
 46 52  1  6  0  0  0
 47 53  2  0  0  0  0
 49 51  1  0  0  0  0
 50 51  1  0  0  0  0
 50 54  1  6  0  0  0
 53 55  1  0  0  0  0
 53 56  1  0  0  0  0
M  END
> <DATABASE_ID>
DB06750

> <DATABASE_NAME>
drugbank

> <SMILES>
CC(C)=CCC[C@](C)(O[C@@H]1O[C@H](CO)[C@@H](O)[C@H](O)[C@H]1O)[C@H]1CC[C@]2(C)[C@@H]1[C@H](O)C[C@@H]1[C@@]3(C)CC[C@H](O)C(C)(C)[C@@H]3[C@H](C[C@@]21C)O[C@@H]1O[C@H](CO)[C@@H](O)[C@H](O)[C@H]1O

> <INCHI_IDENTIFIER>
InChI=1S/C42H72O14/c1-20(2)10-9-13-42(8,56-37-34(52)32(50)30(48)25(19-44)55-37)21-11-15-40(6)28(21)22(45)16-26-39(5)14-12-27(46)38(3,4)35(39)23(17-41(26,40)7)53-36-33(51)31(49)29(47)24(18-43)54-36/h10,21-37,43-52H,9,11-19H2,1-8H3/t21-,22+,23-,24+,25+,26+,27-,28-,29+,30+,31-,32-,33+,34+,35-,36+,37-,39+,40+,41+,42-/m0/s1

> <INCHI_KEY>
YURJSTAIMNSZAE-HHNZYBFYSA-N

> <FORMULA>
C42H72O14

> <MOLECULAR_WEIGHT>
801.024

> <EXACT_MASS>
800.492206998

> <JCHEM_ACCEPTOR_COUNT>
14

> <JCHEM_ATOM_COUNT>
128

> <JCHEM_AVERAGE_POLARIZABILITY>
88.31190476504406

> <JCHEM_BIOAVAILABILITY>
0

> <JCHEM_DONOR_COUNT>
10

> <JCHEM_FORMAL_CHARGE>
0

> <JCHEM_GHOSE_FILTER>
0

> <JCHEM_IUPAC>
(2S,3R,4S,5S,6R)-2-{[(2S)-2-[(1R,2R,5S,7R,8S,10R,11R,14S,15R,16R)-5,16-dihydroxy-2,6,6,10,11-pentamethyl-8-{[(2R,3R,4S,5S,6R)-3,4,5-trihydroxy-6-(hydroxymethyl)oxan-2-yl]oxy}tetracyclo[8.7.0.0²,⁷.0¹¹,¹⁵]heptadecan-14-yl]-6-methylhept-5-en-2-yl]oxy}-6-(hydroxymethyl)oxane-3,4,5-triol

> <ALOGPS_LOGP>
1.00

> <JCHEM_LOGP>
0.681501716666665

> <ALOGPS_LOGS>
-3.42

> <JCHEM_MDDR_LIKE_RULE>
1

> <JCHEM_NUMBER_OF_RINGS>
6

> <JCHEM_PHYSIOLOGICAL_CHARGE>
0

> <JCHEM_PKA>
12.430468642830512

> <JCHEM_PKA_STRONGEST_ACIDIC>
11.909332023511931

> <JCHEM_PKA_STRONGEST_BASIC>
-2.9810835428030016

> <JCHEM_POLAR_SURFACE_AREA>
239.21999999999994

> <JCHEM_REFRACTIVITY>
203.6550000000001

> <JCHEM_ROTATABLE_BOND_COUNT>
10

> <JCHEM_RULE_OF_FIVE>
0

> <ALOGPS_SOLUBILITY>
3.04e-01 g/l

> <JCHEM_TRADITIONAL_IUPAC>
ginsenoside

> <JCHEM_VEBER_RULE>
0

> <DRUGBANK_ID>
DB06750

> <DRUG_GROUPS>
nutraceutical

> <GENERIC_NAME>
Ginsenoside Rg1

> <SYNONYMS>
Ginsenoside A2; Panaxoside A; Sanchinoside C1

$$$$
Carotene-beta
  Mrv1572001071617042D          

 40 41  0  0  0  0            999 V2000
   -6.7893   -0.2309    0.0000 C   0  0  0  0  0  0  0  0  0  0  0  0
   -6.0748    0.1816    0.0000 C   0  0  0  0  0  0  0  0  0  0  0  0
   -7.5038   -1.4684    0.0000 C   0  0  0  0  0  0  0  0  0  0  0  0
   -8.2182   -0.2309    0.0000 C   0  0  0  0  0  0  0  0  0  0  0  0
   -5.3603   -0.2309    0.0000 C   0  0  0  0  0  0  0  0  0  0  0  0
   -8.2182   -1.0559    0.0000 C   0  0  0  0  0  0  0  0  0  0  0  0
   -4.6459    0.1816    0.0000 C   0  0  0  0  0  0  0  0  0  0  0  0
   -3.9314   -0.2309    0.0000 C   0  0  0  0  0  0  0  0  0  0  0  0
   -4.6459    1.0066    0.0000 C   0  0  0  0  0  0  0  0  0  0  0  0
   -3.2169    0.1816    0.0000 C   0  0  0  0  0  0  0  0  0  0  0  0
   -2.5025   -0.2309    0.0000 C   0  0  0  0  0  0  0  0  0  0  0  0
   -1.7880    0.1816    0.0000 C   0  0  0  0  0  0  0  0  0  0  0  0
   -1.0735   -0.2309    0.0000 C   0  0  0  0  0  0  0  0  0  0  0  0
   -1.7880    1.0066    0.0000 C   0  0  0  0  0  0  0  0  0  0  0  0
   -0.3591    0.1816    0.0000 C   0  0  0  0  0  0  0  0  0  0  0  0
    0.3554   -0.2309    0.0000 C   0  0  0  0  0  0  0  0  0  0  0  0
    1.0699    0.1816    0.0000 C   0  0  0  0  0  0  0  0  0  0  0  0
    1.7844   -0.2309    0.0000 C   0  0  0  0  0  0  0  0  0  0  0  0
    2.4988    0.1816    0.0000 C   0  0  0  0  0  0  0  0  0  0  0  0
    1.7844   -1.0559    0.0000 C   0  0  0  0  0  0  0  0  0  0  0  0
    3.2133   -0.2309    0.0000 C   0  0  0  0  0  0  0  0  0  0  0  0
    3.9278    0.1816    0.0000 C   0  0  0  0  0  0  0  0  0  0  0  0
    4.6422   -0.2309    0.0000 C   0  0  0  0  0  0  0  0  0  0  0  0
    5.3567    0.1816    0.0000 C   0  0  0  0  0  0  0  0  0  0  0  0
    4.6422   -1.0559    0.0000 C   0  0  0  0  0  0  0  0  0  0  0  0
    6.0712   -0.2309    0.0000 C   0  0  0  0  0  0  0  0  0  0  0  0
    6.7857    0.1816    0.0000 C   0  0  0  0  0  0  0  0  0  0  0  0
    7.5001    1.4191    0.0000 C   0  0  0  0  0  0  0  0  0  0  0  0
    8.2146    0.1816    0.0000 C   0  0  0  0  0  0  0  0  0  0  0  0
    8.2146    1.0066    0.0000 C   0  0  0  0  0  0  0  0  0  0  0  0
   -6.7893   -1.0559    0.0000 C   0  0  0  0  0  0  0  0  0  0  0  0
   -6.0748   -1.4684    0.0000 C   0  0  0  0  0  0  0  0  0  0  0  0
    6.0712    1.4191    0.0000 C   0  0  0  0  0  0  0  0  0  0  0  0
    6.7857    1.0066    0.0000 C   0  0  0  0  0  0  0  0  0  0  0  0
   -7.9163    0.8961    0.0000 C   0  0  0  0  0  0  0  0  0  0  0  0
   -7.5038    0.1816    0.0000 C   0  0  0  0  0  0  0  0  0  0  0  0
   -7.0913    0.8961    0.0000 C   0  0  0  0  0  0  0  0  0  0  0  0
    7.0876   -0.9453    0.0000 C   0  0  0  0  0  0  0  0  0  0  0  0
    7.5001   -0.2309    0.0000 C   0  0  0  0  0  0  0  0  0  0  0  0
    7.9126   -0.9453    0.0000 C   0  0  0  0  0  0  0  0  0  0  0  0
  1 31  2  0  0  0  0
  1 36  1  0  0  0  0
  1  2  1  0  0  0  0
 31  3  1  0  0  0  0
 36  4  1  0  0  0  0
  2  5  2  0  0  0  0
  3  6  1  0  0  0  0
  5  7  1  0  0  0  0
  7  8  2  0  0  0  0
  7  9  1  0  0  0  0
  8 10  1  0  0  0  0
 10 11  2  0  0  0  0
 11 12  1  0  0  0  0
 12 13  2  0  0  0  0
 12 14  1  0  0  0  0
 13 15  1  0  0  0  0
 15 16  2  0  0  0  0
 16 17  1  0  0  0  0
 17 18  2  0  0  0  0
 18 19  1  0  0  0  0
 18 20  1  0  0  0  0
 19 21  2  0  0  0  0
 21 22  1  0  0  0  0
 22 23  2  0  0  0  0
 23 24  1  0  0  0  0
 23 25  1  0  0  0  0
 24 26  2  0  0  0  0
 26 27  1  0  0  0  0
 27 34  2  0  0  0  0
 27 39  1  0  0  0  0
 34 28  1  0  0  0  0
 39 29  1  0  0  0  0
 28 30  1  0  0  0  0
  4  6  1  0  0  0  0
 29 30  1  0  0  0  0
 31 32  1  0  0  0  0
 34 33  1  0  0  0  0
 36 35  1  0  0  0  0
 36 37  1  0  0  0  0
 39 38  1  0  0  0  0
 39 40  1  0  0  0  0
M  END
> <DATABASE_ID>
DB06755

> <DATABASE_NAME>
drugbank

> <SMILES>
C\C(\C=C\C=C(/C)\C=C\C1=C(C)CCCC1(C)C)=C/C=C/C=C(\C)/C=C/C=C(\C)/C=C/C1=C(C)CCCC1(C)C

> <INCHI_IDENTIFIER>
InChI=1S/C40H56/c1-31(19-13-21-33(3)25-27-37-35(5)23-15-29-39(37,7)8)17-11-12-18-32(2)20-14-22-34(4)26-28-38-36(6)24-16-30-40(38,9)10/h11-14,17-22,25-28H,15-16,23-24,29-30H2,1-10H3/b12-11+,19-13+,20-14+,27-25+,28-26+,31-17+,32-18+,33-21+,34-22+

> <INCHI_KEY>
OENHQHLEOONYIE-JLTXGRSLSA-N

> <FORMULA>
C40H56

> <MOLECULAR_WEIGHT>
536.888

> <EXACT_MASS>
536.438201803

> <JCHEM_ACCEPTOR_COUNT>
0

> <JCHEM_ATOM_COUNT>
96

> <JCHEM_AVERAGE_POLARIZABILITY>
71.84136004580817

> <JCHEM_BIOAVAILABILITY>
0

> <JCHEM_DONOR_COUNT>
0

> <JCHEM_FORMAL_CHARGE>
0

> <JCHEM_GHOSE_FILTER>
0

> <JCHEM_IUPAC>
1,3,3-trimethyl-2-[(1E,3E,5E,7E,9E,11E,13E,15E,17E)-3,7,12,16-tetramethyl-18-(2,6,6-trimethylcyclohex-1-en-1-yl)octadeca-1,3,5,7,9,11,13,15,17-nonaen-1-yl]cyclohex-1-ene

> <ALOGPS_LOGP>
9.72

> <JCHEM_LOGP>
11.124081100000001

> <ALOGPS_LOGS>
-6.14

> <JCHEM_MDDR_LIKE_RULE>
0

> <JCHEM_NUMBER_OF_RINGS>
2

> <JCHEM_PHYSIOLOGICAL_CHARGE>
0

> <JCHEM_POLAR_SURFACE_AREA>
0.0

> <JCHEM_REFRACTIVITY>
191.61180000000013

> <JCHEM_ROTATABLE_BOND_COUNT>
10

> <JCHEM_RULE_OF_FIVE>
0

> <ALOGPS_SOLUBILITY>
3.91e-04 g/l

> <JCHEM_TRADITIONAL_IUPAC>
β-carotene

> <JCHEM_VEBER_RULE>
1

> <DRUGBANK_ID>
DB06755

> <DRUG_GROUPS>
approved; nutraceutical

> <GENERIC_NAME>
Beta carotene

> <SYNONYMS>
all-trans-β-carotene; Beta carotene; beta-carotene; Betacarotene; β-Karotin

> <PRODUCTS>
24 Multivitamins + Minerals; A.B.C. Formula #1; A/o-26 - Caplet; Absorbene; Aces Formula/formule A A S; Acti-carotene + Zn Caplet; Acti-retinol & Zn Caplet; Active FE; Adrien Gagnon Formule A-C-E + Selenium; Adult Formula 50+; Alkadrenergy Tablets; Am Caps; Avon Vitadvance Multi-kids Complete; B-plus - Tab; B.E.T. Complex; Bal-Care DHA; Bal-Care DHA Essential; Balance Ace - Cap; Beta A 10000 Cap; Beta C & E With Selenium; Beta C and E Tab; Beta Carotene; Beta Carotene - Capsule 25000 Iu; Beta Carotene - Tab 25000iu; Beta Carotene 10 000 - Tab 10000I.U.; Beta Carotene 10 000 Iu; Beta Carotene 10,000 Iu; Beta Carotene 10000 I.U. - Capsule; Beta Carotene 10000 I.U. Cap; Beta Carotene 10000 I.U. Tablets; Beta Carotene 10000 U.I.; Beta Carotene 10000I.U. Dietary Supplement; Beta Carotene 10000unit Tab; Beta Carotene 25,000 I.U. Tab; Beta Carotene 25,000iu Caplet; Beta Carotene 25000 Caplet; Beta Carotene 25000 I.U.; Beta Carotene 25000 I.U. Tablets; Beta Carotene 25000 U.I.; Beta Carotene 25000I.U. Dietary Supplement; Beta Carotene 30,000 Iu; Beta Carotene Cap 10000unit; Beta Carotene Cap 25000I.U.; Beta Carotene Cap 25000unit; Beta Carotene Cap 30000unit; Beta Carotene Caplet 25000iu; Beta Carotene Capsules U.S.P. 10000 I.U.; Beta Carotene Capsules U.S.P. 25000I.U.; Beta Carotene Extra Forte Cap 25000; Beta Carotene Extra Forte-cap; Beta Carotene Gelule Cap 10000unit; Beta Carotene Plus; Beta Carotene Provitamin A With D; Beta Carotene Supplement; Beta Carotene Tab 10000unit; Beta Carotene Tab 25000 Unit; Beta Carotene Tab 25000unit; Beta Carotene Tab 30000units; Beta Carotene Tablets 10000 Iu; Beta Carotene Tablets 25000I.U.; Beta Green Enriching Formula; Beta Marine Caplet; Beta-CE Cap; Beta-carotene 10,000 Iu With Vitamins C & E; Beta-carotene 10000 U.I. - Capsule; Beta-carotene 10000I.U. With Borage Oil Cap; Beta-carotene 25000 Plus Zinc Caplet; Beta-carotene Cap 25000unit; Beta-carotene Capsules; Beta-carotene Capsules 10000unit; Beta-retinol + Zinc Caplet; Betacarotene 10000 Iu; Betacarotene 25000 Iu; Betacept Special Formula Vitamins Cap; Betafant Tab; Betatene 20 Lp 20; Bio Bronze Cap 924unit; Body Rox; Bodysmarts With Vitamins A, C and E; C-plus - Tab; Caro Caps 5.9mg; Carotene Capsules 10,000 Iu; Cavan Alpha; Cavan Folate DHA; Cavan Folate OB; Cavan-EC SOD DHA; Cell-wise; Cell-wise Natural Source; Cellular Formula; Central-vite 18 Essential; Century Complete; Chewable Adult Multivitamins With Minerals; Chewable Beta-carotene 5000 I.U.(3mg) Tab; Children's Chew Multi & Min Tab; Children's Chewable Multivitamin and Multimineral; Children's Chewable Multivitamins and Minerals; Children's Chewable Tab; Children's Chewable Vit and Min Tab; Chlorotene-beta Carotene Tab 12500unit; Choice OB DHA; Coen.q10w.vit.c and E Beta-car.se Cu Zn Mn; Complete Multivitamins and Minerals Tablets Timed Release; Complete Natal DHA; CompleteNate Chewable; Corvita; Corvite; Daily Balance Tab; Daily Energy Brand Vitamin & Mineral Drink Mix; Defense Caplets; Derma-force; Doctor's Choice Brand for Men; Dr. Chen's Men's Formula; Duet DHA; Duet DHA 400; Duet DHA 400 ec; Duet DHA Balanced; DuetDHA Balanced; DuetDHA Complete; E & I Formulae; E.S.T. Complex; EC + Complex; Earthpals Children's Chewables Multi-vitamin & Mineral Tablets; Eden With Vitamins A, C, and E; Edge OB; Emuol V; Enrich Core Pack - Children Vitamin and Mineral Supplement; Envirocomplex; Escavite D; Essential Vitamins and Minerals; Evc - Liq; Evc Liquid Vitamins A,c,b6 With Beta Caro&zn; Extra 11; Extra Once A Day; Extra P.N. Vitamin-mineral Drink Mix; Fem - Protect; Fem Time Tab; Floriva; Folet DHA; Folika-MG; For-2; Formula 14 Dietary Supplement; Formula Cp Cap; Formula Cw; Formula Cw-caplet; Formula Gly; Formula Im-vitamins and Minerals Tab; Formula O; Formula O.C.; Fusion Activator Formula Tab; G.A.S. Complex; Geri-plus Cap; Germacil; Gnc Natural Source Beta-carotene 6mg Softcap; Grand Master Formula Tab; Great Day/am Formula Tab; Guardyn Tab; Hi Potency Multi Tab; High Potency Multivitamins & Minerals Caplets; I-care Multivitamin and Multimineral Tablets; IV-8 Formula; Icaps; Icaps Time Release; Imm Formula Cap; Innersource Tab; Iron Polysaccharides Folic Acid DHA; Isotonix Atx Vitamin Mineral Formula; Isotonix Multitech Vitamin Mineral Supplemen; Itabs Plus; Kama Caze Syrup; Kamu Jay Multi Complex Tab; Kanga-kid Multi-vitamin & Mineral; L.I.P. Complex; Longevit-E - Capsule; Luna Vitamin and Mineral Bar for Women; Maintain Multiple Vitamin & Minerals; Master Key Multi Vitamin Multi Mineral Formula 2; Materna; Materna - Tab; Materna-tab; Maximum Once A Day; Maxine Vitamin and Mineral Supplement; Mega Balance; Mega Capsules; Mega Plex III - Pck; Mega Plex IV - Pck; Mega-vim 75 With Beta-carotene - Tablets; Men's; Men's 50+; Men's Biomultiple Vitamin and Mineral Supplement; Milltrium Senior Vitamin and Mineral Supplement; Moms Choice Rx; Multi - N.T.O.x Formula - Tab; Multi Nt-OX; Multi Plex I - Tab; Multi Plex II - Tab; Multi Vitamin - Mineral; Multi Vitamines - Liq; Multi-Nate 30; Multi-actin; Multi-kid; Multi-phyto Capsules; Multi-vitamin Dietary Supplement; Multinate DHA; Multinate DHA Extra; Multipack II; Multiple Vitamins - Tablet; Multivitamin & Minerals (iron Free); Multivitamin & Multimineral; Multivitamines Et Mineraux Reguliers / Regular Multivitamins and Minerals; Multivitamins and Minerals - Complete; Multivitamins and Minerals Tablets; Multivitamins and Minerals With Betacarotene Tablets; Multivitamins and Minerals for Men; Multivitamins and Minerals for Women; Multivitamins and Minerals for Young Men; Multivitamins and Minerals for Young Women; Multivitamins and Multiminerals Formula Regular Tablet; Multra Plex; Munit-E Tablet; NEONATAL Complete; NataChew; Natal-V RX Multi-vitamin/Multi-mineral; Natavite; Natural Source Beta Carotene Cap 25000iu; Natural Source Betacarotene 25000 Iu; Natural Source Spectrum With Beta Carotene; Neonatal DHA; Nutra Boost; Nutria; Nutrilite Double X; Nutrol V Capsule; OB Complete Prenatal; Ocuvite Tab; Ocuvite Vitamin and Mineral Supplement; Onccor; Oncovite; One A Day Advance Adults; One A Day Advance Adults 50+; One A Day Advance Fem; One Daily Vitamin and Mineral Dietary Supplement; One Per Day Vitamin and Mineral Dietary Supplement; One Tablet Daily Mens Formula; One-A-day Advance Fem - Tablets; One-A-day Advance Men's; Only One - Tablet; Optivite Vitamin and Mineral Supplement Tablet; Original Bioscal Forte Multi-vitamin Supplement Capsules; P.N. Vitamin-mineral Drink; P.N.P. Vitamin Drink; P.R.O. Complex; PM Caps; PNV Ferrous Fumarate Docusate Folic Acid; PNV Prenatal Plus Multivitamin; PNV Tabs 29-1; PNV-First; PR Natal 400; PR Natal 400 ec; PR Natal 430; PR Natal 430 ec; Paramettes Beta Carotene Cap 25000iu; Paramettes Beta Carotene With Vitamins C & E; Perfect Harvest; Pnv-OB-dha; Pour Ma Santé; PreGen DHA; PreGenna; PreNatal 19; PrePLUS; PreTAB; Pregvit; Pregvit Folic 4; Pregvit Folic 5; Premium Prenatal; Premium Prenatal - Tablets; Prenatabs FA; Prenatal Formula Tab; Prenatal Plus; Prenatal Plus Iron; Prenatal Plus Multivitamin Plus DHA MiniCaps; Prenatal Supplement - Tab; Prenatal Vi-min; Prenatal Vitamin and Mineral Supplement; Prenatal Vitamin and Mineral Supplement -tab; Prenatal Vitamin and Mineral Supplement Tab; Prenatal Vitamins Plus Low Iron; Prenatal Vitamins and Minerals Tablets; Prenatal and Post Partum Supplement; Prenate Elite; Prenate Star; Pro-ace; Prost-10 Vitamin and Mineral Supplement; Q.T. #4 Vitamin and Mineral Dietary Supplement; RE Nata OB; Renate; Renate DHA; Revit Multi-vitamins and Minerals; Revitalize Multi-vitamin and Mineral Complex; Right Choice A.M. Multi Formula - Caplet; Se-Natal 19; Se-Natal 19 Chewable; Select OB; Select-OB Plus DHA Prenatal Supplement Plus DHA; Senior Multi One; SetonET; SetonET-EC; Sincera - Tablets; Somavit Brand Vitamins and Minerals Complex; Spectrum 2 Cap; Spectrum Performa Multivitamins and Minerals Tablets; Super 7 Vitamin and Mineral Supplement; Super Charged Energy; Super Kids Chewable Multivitamin Multimineral (chewable Tablets); Super Multi; Super Vita-vim With Beta-carotene - Tab; Super-A Vitamins With Selenium Dietary Supplement; Super-cell; Supplement De Multivitamines Infusion Arome Fruits Rouges; Swiss One Multivitamin and Mineral Caplet; Swiss Total One; TL-Folate; Thrivite 19; Thrivite Rx; Trinatal GT; Trinatal Rx 1; Trinatal Ultra; Triveen-Duo DHA; Ultra Hr; Usana Megavitamin Tablets - Tab; V-V Dietary Supplement; Vc II; Vege Swiss One Multivitamin W Chel Mins Tab; Vena-Bal DHA; Vinate AZ; Virt Nate; Virt Vite GT; Virt-Advance; Virt-Bal DHA Plus; Virt-Nate; Virt-PN; Virt-Pn; Vita Balance 2000; Vita Day Tab; Vita Plex Tab; Vita Vim With Beta Carotene-caplet; Vita-vim With Beta-carotene - Tab; VitaPhil Aide; Vitafol Fe Plus; Vitafol Ultra; Vitalife - Capsule; Vitamin A C E W.niacinam.beta Car.and Min.; Vitamin E + 3 (extra Strength); Vitamin E + 3 Extra Strength With Zinc; Vitamins A, C & E Cap.; Vitamins C Plus E W.beta Carotene and Se; Vitaphil 90 DHA; Vitaphil DHA; Viva Kids - Tab; Vol-Nate; Vol-Plus; Vol-Tab Rx; Vtb Vitamin and Mineral Supplement; Vyo Cylate - Pwr; Vyqua; Webber E Plus 3 Cap; Webber Natural Source Beta Carotene Cap; WesTab Plus; Women's Biomultiple Vitamin and Mineral Supplement; Women's Change Formula; Women's Formula; Zatean-Pn; Zinc With B-carotene Tab; healthy mamaBE WELL ROUNDED BE WELL ROUNDED

$$$$
Betaine.mol
  Mrv0541 02231218182D          

  8  7  0  0  0  0            999 V2000
   -1.4289   -0.4678    0.0000 O   0  5  0  0  0  0  0  0  0  0  0  0
   -0.7145   -0.0553    0.0000 C   0  0  0  0  0  0  0  0  0  0  0  0
   -0.7145    0.7697    0.0000 O   0  0  0  0  0  0  0  0  0  0  0  0
    0.0000   -0.4678    0.0000 C   0  0  0  0  0  0  0  0  0  0  0  0
    0.7145   -0.0553    0.0000 N   0  3  0  0  0  0  0  0  0  0  0  0
    0.3020    0.6592    0.0000 C   0  0  0  0  0  0  0  0  0  0  0  0
    1.4289    0.3572    0.0000 C   0  0  0  0  0  0  0  0  0  0  0  0
    1.1270   -0.7697    0.0000 C   0  0  0  0  0  0  0  0  0  0  0  0
  1  2  1  0  0  0  0
  2  3  2  0  0  0  0
  2  4  1  0  0  0  0
  4  5  1  0  0  0  0
  5  6  1  0  0  0  0
  5  7  1  0  0  0  0
  5  8  1  0  0  0  0
M  CHG  2   1  -1   5   1
M  END
> <DATABASE_ID>
DB06756

> <DATABASE_NAME>
drugbank

> <SMILES>
C[N+](C)(C)CC([O-])=O

> <INCHI_IDENTIFIER>
InChI=1S/C5H11NO2/c1-6(2,3)4-5(7)8/h4H2,1-3H3

> <INCHI_KEY>
KWIUHFFTVRNATP-UHFFFAOYSA-N

> <FORMULA>
C5H11NO2

> <MOLECULAR_WEIGHT>
117.1463

> <EXACT_MASS>
117.078978601

> <JCHEM_ACCEPTOR_COUNT>
2

> <JCHEM_AVERAGE_POLARIZABILITY>
12.10962349652031

> <JCHEM_BIOAVAILABILITY>
1

> <JCHEM_DONOR_COUNT>
0

> <JCHEM_FORMAL_CHARGE>
0

> <JCHEM_GHOSE_FILTER>
0

> <JCHEM_IUPAC>
2-(trimethylazaniumyl)acetate

> <ALOGPS_LOGP>
-2.70

> <JCHEM_LOGP>
-4.494183842471745

> <ALOGPS_LOGS>
-1.96

> <JCHEM_MDDR_LIKE_RULE>
0

> <JCHEM_NUMBER_OF_RINGS>
0

> <JCHEM_PHYSIOLOGICAL_CHARGE>
0

> <JCHEM_PKA_STRONGEST_ACIDIC>
2.2595637800263866

> <JCHEM_POLAR_SURFACE_AREA>
40.129999999999995

> <JCHEM_REFRACTIVITY>
52.8234

> <JCHEM_ROTATABLE_BOND_COUNT>
2

> <JCHEM_RULE_OF_FIVE>
1

> <ALOGPS_SOLUBILITY>
1.86e+00 g/l

> <JCHEM_TRADITIONAL_IUPAC>
Bet

> <JCHEM_VEBER_RULE>
0

> <DRUGBANK_ID>
DB06756

> <DRUG_GROUPS>
approved; nutraceutical

> <GENERIC_NAME>
Glycine betaine

> <SYNONYMS>
2-(Trimethylammonio)Acetate; 2-N,N,N-trimethylammonio acetate; 2-trimethylammonioacetate; abromine; acidol; betaína anhidra; Betaine; Betaine, anhydrous; Glycinebetaine; N,N,N-trimethylammonioacetate; N,N,N-Trimethylglycine; TMG; Trimethylaminoacetate; Trimethylammonioacetate; Trimethylglycine; trimethylglycocoll

> <PRODUCTS>
ATONO2 Oxygen Baby; Acididyn Tab; Alka-pan Tablets; Bemosin Tab; Betacol; Betaine HCl Tab 500mg; Betaine HCl and Pepsin; Betasin Tab; Cystadane; Dr.g Pore Purifing Toner; Dygest; EnBrace HR; EnLyte; Enzyme Tablets; Face It Hd Perfect Bb Spf30 Pa 01; Face It Hd Perfect Bb Spf30 Pa 02; Glutamic Acid HCl Betaine HCl W Pepsin; Glutamic Acid Pepsin and Betaine Tablets; HWASAMONG Dr.All Scalp HealingShampoo; Neo Life Beta Gest Tab; PramLyte; Pro Gest Tab; Stomach Aid-digestive Aid; Ultr F/b E.S. Mega Lipotropic Fmla W B6bet; Wizyoung Diamond Collagen Essence Mask Pack; Wizyoung Vitamin Collagen Essence Mask Pack; Zypanax

> <SALTS>
Betaine citrate; Betaine hydrochloride

$$$$

  Mrv1909 07102021182D          

  1  0  0  0  0  0            999 V2000
    0.0000    0.0000    0.0000 Mn  0  2  0  0  0  0  0  0  0  0  0  0
M  CHG  1   1   2
M  END
> <DATABASE_ID>
DB06757

> <DATABASE_NAME>
drugbank

> <SMILES>
[Mn++]

> <INCHI_IDENTIFIER>
InChI=1S/Mn/q+2

> <INCHI_KEY>
WAEMQWOKJMHJLA-UHFFFAOYSA-N

> <FORMULA>
Mn

> <MOLECULAR_WEIGHT>
54.938

> <EXACT_MASS>
54.938049636

> <JCHEM_ACCEPTOR_COUNT>
0

> <JCHEM_ATOM_COUNT>
1

> <JCHEM_AVERAGE_NEUTRAL_MICROSPECIES_CHARGE>
2.0

> <JCHEM_AVERAGE_POLARIZABILITY>
1.7784

> <JCHEM_BIOAVAILABILITY>
1

> <JCHEM_DONOR_COUNT>
0

> <JCHEM_FORMAL_CHARGE>
2

> <JCHEM_GHOSE_FILTER>
0

> <JCHEM_IUPAC>
manganese(2+) ion

> <JCHEM_LOGP>
-0.156

> <JCHEM_MDDR_LIKE_RULE>
0

> <JCHEM_NEUTRAL_CHARGE>
2

> <JCHEM_NUMBER_OF_RINGS>
0

> <JCHEM_PHYSIOLOGICAL_CHARGE>
2

> <JCHEM_PKA>
3.55

> <JCHEM_PKA_STRONGEST_ACIDIC>
3.09

> <JCHEM_POLAR_SURFACE_AREA>
0.0

> <JCHEM_REFRACTIVITY>
0.0

> <JCHEM_ROTATABLE_BOND_COUNT>
0

> <JCHEM_RULE_OF_FIVE>
1

> <JCHEM_TRADITIONAL_IUPAC>
ergosterol

> <JCHEM_VEBER_RULE>
1

> <DRUGBANK_ID>
DB06757

> <DRUG_GROUPS>
approved; nutraceutical

> <GENERIC_NAME>
Manganese

> <PRODUCTS>
24 Multivitamins + Minerals; 50 Plus Multiple Vitamins & Minerals; A.R.T.H. Away Formula; A/o-26 - Caplet; Acti-MN + B1 + C Caplet; Addamel N; Addnutriv; Adrenergy Tablets; Adult Formula 50+; Advanced 2000 Capsules; Advanced B & T Formula; Alkadrenergy Tablets; Amd; Armax; B & J Formula Dietary Supplement; B.E.T. Complex; Balance Ace - Cap; Bio-plex Tab 0.95mg; Body Rox; C. Vit-min Formula; C.H.V. Formula; Cal Mag Plus - Tab; Cal-mag Plus K, Mn and Zn Caplets; Calcium & Magnesium Citrate Plus D With Manganese, Potassium & Zinc; Calcium & Magnesium Plus Potassium, Zinc, & Manganese; Calcium & Magnesium With Potassium, Zinc, Manganese & Vitamin D; Calcium Complex High Grade; Calcium Plus; Calcium With Mg Zn Mn Cu CR Si and Vit. C & D; Calcium and Magnesium 1:1 Plus Tablets; Carti-aide Tab; Cell-wise; Cell-wise Natural Source; Cellular Formula; Centratex; Chela Iron Plus C,b Complex; Chela Zinc Plus; Chela-chromium 200; Chela-manganese 50 Plus; Chelamins Plus Tab; Chelapro; Chelated Manganese Tablets - 5mg; Chelazome Manganese Cap 15mg; Chewable Calcium Plus Magnesium and Minerals; Children's Chew Multi & Min Tab; Children's Chewable Tab; Children's Chewable Vit and Min Tab; Chromease Tab; Chromium Plus; Classic Swiss One 10 Multivitamin and Mineral Tab; Cmp Plex; Coen.q10w.vit.c and E Beta-car.se Cu Zn Mn; Collag-EN; Complete Multivitamins and Minerals Tablets Timed Release; Concept OB; Daily Energy Brand Vitamin & Mineral Drink Mix; Defense Caplets; Doctor's Choice Brand for Men; Dp 2000; E 400iu W Selenium 100mcg; Efferlife Multivitamins and Minerals; Ellis Tonic; Envirocomplex; Extra Once A Day; Fem Time Tab; Folivane-OB; For-2; Formula Ant-cel; Formula BP; Formula EC; Formula F L W; Formula Fe-vitamin and Mineral Tab; Formula Gly; Formula Gm; Formula Hh; Formula O-care Vitamin and Mineral Supplement; Formula O.C.; Formula Osg; Fusion PM Formula Tab; Glyco Lite Ect; Glyco Plus Ect; Glyco-aide Tab; Grand Master Formula Tab; Great Day/am Formula Tab; Gtf-vitamin-minerals & Pancreatin Tab; Guardyn Tab; Hemocyte Plus; Hi Potency B Complex W Chelated Minerals; Hi Potency Multi Tab; High Potency Multivitamins & Minerals Caplets; Hsn Formula; Hvp Chelated Manganese 30mg; Hypo Vites Tab; Hyporyl - Tab; IV-8 Formula; Icaps; Inhibitol - Tab; Innersource Tab; Iron Plus Manganese, B12, Folic Acid & C; Iron Plus Tab; Isotonix Multitech Vitamin Mineral Supplemen; Itabs Plus; J.T. Formula; K.L. Vitamin-mineral; Kanga-V Multivitamins & Minerals; Kenwood Liquid Supplement; L.G.I.T.; Liquid Opti-minplex +d; Longevit-E - Capsule; Luna Vitamin and Mineral Bar for Women; M T E 4 Concentrate Inj; M.T.E.-4; M.T.E.-4 Concentrated; M.T.E.-6 Concentrated; Magnacal; Magnum-75 Vitamin and Mineral Supplement; Maintain Multiple Vitamin & Minerals; Mangadyn; Manganese; Manganese (gluconate) 10 Mg Tablets; Manganese 30mg - Tab; Manganese 50mg Plus B1 & E Tab; Manganese Caps 10mg; Manganese Chelate Tab 15mg; Manganese Chelated Tab 50mg; Manganese Citrate; Manganese Sulfate; Master Key Multi Vitamin Multi Mineral Formula 2; Materna; Materna - Tab; Materna-tab; Maximum Once A Day; Maxine Vitamin and Mineral Supplement; Mega Balance; Mega Min Capsules; Mega Multiple Minerals; Mega Plex III - Pck; Mega Plex IV - Pck; Mega Vitaminerals; Mega-vim 75 With Beta-carotene - Tablets; Megavite Rx; Men's; Men's 50+; Men's Biomultiple Vitamin and Mineral Supplement; Men's Multi Master Formula; Micro Mn; Micro Plus 4 Concentrate; Micro Plus 4 Regular Strength; Micro Plus 5 Concentrate; Micro Plus 6 (concentrate); Micro Plus 6 (pediatric); Micro Plus 6 (regular); Micro+6 Concentrate; Milltrium Senior Vitamin and Mineral Supplement; Mineral Support; Mineralex; Mte 4 Inj; Multi Cal Mag Liquid; Multi II IV Vi Tab; Multi Mega Minerals With Vitamin D; Multi Mins Liquid; Multi Plex I - Tab; Multi Plex II - Tab; Multi Tabs; Multi Vitamin - Mineral; Multi Vitamin and Mineral vitamin; Multi Vitamin-mineral Formula; Multi-actin; Multi-force for Women Tab; Multi-mins Minerals; Multicaps; Multimineral Chelates; Multimineral Tablets; Multiminerals; Multipack II; Multiple Minerals; Multiple Trace Metal Additive Solution; Multiple Vitamins and Minerals; Multiple Vitamins and Minerals Capsules; Multitabs; Multitrace -4; Multitrace -4 Pediatric; Multitrace-4; Multitrace-4 Neonatal; Multitrace-5; Multivitamin & Minerals (iron Free); Multivitamin & Multimineral; Multivitamins and Minerals Tablets; Multivitamins and Minerals With Betacarotene Tablets; Multivitamins and Minerals for Men; Multivitamins and Minerals for Women; Multivitamins and Minerals for Young Men; Multivitamins and Minerals for Young Women; Multra Plex; Multra With Iron; N.U.T. Complex; Natural Liquid Mineral Supplement; Natural Source Spectrum With Beta Carotene; Nutra Boost; Nutra-clear; Nutrilite Double X; Oligofer Liq; Oligostim Manganese-cobalt; Olympian Multi Vit Plus Minerals Tab; Onccor; One A Day Advance Adults; One A Day Advance Adults 50+; One A Day Multiple Vit W Minerals; One A Day Tab; One Daily Vitamin and Mineral Dietary Supplement; One Per Day Vitamin and Mineral Dietary Supplement; One Tablet Daily Mens Formula; One-A-day Advance Men's; Only One - Tablet; Onyx; Opti-manganese + B1 + C Caplet; Organic Minerals Tablet; Osteo Factors; Osteo Formula; Osteo Regime; Osteo-force; Osteoshield; Ostogen Tab 6mg; Ostrophin Pmg Tab 4mg; Peditrace; Pnv-VP-U; Premium Prenatal; Premium Prenatal - Tablets; Prenatal Formula Tab; Prenatal Supplement - Tab; Prenatal Vi-min; Prenatal Vitamin and Mineral Supplement; Prenatal Vitamin and Mineral Supplement -tab; Prenatal Vitamin and Mineral Supplement Tab; Prenatal Vitamins and Minerals Tablets; Prenatal and Post Partum Supplement; Prenatrix; Prenatryl; Prim - Royal P.M.T.; Pro Enz Tab; Pro Hers Vanilla; Pro Pcos Citrus; Procosa II; Pure Calcium calcium; PureFe OB Plus; PureFe Plus; PureVit DualFe Plus; RE FAC-x; Release; Revit Multi-vitamins and Minerals; Revitalize Multi-vitamin and Mineral Complex; Right Choice P.M. Multi Formula - Caplet; Se-Tan PLUS; Senior Multi One; Somavit Brand Vitamins and Minerals Complex; Spectrum 2 Cap; Spectrum Performa Multivitamins and Minerals Tablets; Strovite One Caplets; Super 7 Vitamin and Mineral Supplement; Super Cal Mag Plus; Super Daily No 2; Super Multi; Swical-energy 3e Age; Swiss One; Swiss One Multi Vit & Chel Min Tab; Swiss One Multivitamin and Mineral Caplet; Swiss One Timed Release Tab; Swiss Total One; Synergistic Manganese Cap; Synergistic Manganese Capsules; Total Living Concepts Formula One - Tab; Totalvit Plus; Trace Elements 4; Trace Elements Injection USP; Trace Elements Solution Inj; Trace Elements for Injection - Liq IV; Trace Minerals Et/and B12 Tab; Tralement; Usana Multimineral Tablets; Usana Multimineral Tablets - Tab; Usana Procosa Tablets; V & M Vitamin and Mineral Supplement; Vege Swiss One Multivitamin W Chel Mins Tab; Vimeral Tab; Vita Balance 2000; Vital Be-100; Vitalife - Capsule; Vitality Brand Calcium Plus Tab; Vitamin & Mineral Formula 1 Dietary Supplement; Vitamin E 400 Iu With Selenium, Vitamin C & Manganese; Vitrexate; Vitrexate FE; Vitrexyl; Vitrexyl plus Iron; Vtb Vitamin and Mineral Supplement; Wellness Formula; Women's Biomultiple Vitamin and Mineral Supplement; Women's Formula; Zymain Tab; arthronSAN

> <SALTS>
Manganese chloride; Manganese chloride tetrahydrate; Manganese sulfate

$$$$
Sialyllactose.mol
  Mrv0541 02231218252D          

 13 14  0  0  0  0            999 V2000
    2.2339    0.6269    0.0000 N   0  0  0  0  0  0  0  0  0  0  0  0
    1.6208    0.0749    0.0000 C   0  0  0  0  0  0  0  0  0  0  0  0
    0.8362    0.3298    0.0000 C   0  0  0  0  0  0  0  0  0  0  0  0
    0.2231   -0.2222    0.0000 C   0  0  0  0  0  0  0  0  0  0  0  0
    0.3093   -1.0427    0.0000 C   0  0  0  0  0  0  0  0  0  0  0  0
   -0.4444   -1.3783    0.0000 N   0  0  0  0  0  0  0  0  0  0  0  0
   -0.9964   -0.7652    0.0000 C   0  0  0  0  0  0  0  0  0  0  0  0
   -1.8214   -0.7652    0.0000 C   0  0  0  0  0  0  0  0  0  0  0  0
   -2.2339   -0.0507    0.0000 C   0  0  0  0  0  0  0  0  0  0  0  0
   -1.8214    0.6638    0.0000 C   0  0  0  0  0  0  0  0  0  0  0  0
   -2.2339    1.3783    0.0000 O   0  0  0  0  0  0  0  0  0  0  0  0
   -0.9964    0.6638    0.0000 C   0  0  0  0  0  0  0  0  0  0  0  0
   -0.5839   -0.0507    0.0000 C   0  0  0  0  0  0  0  0  0  0  0  0
  1  2  1  0  0  0  0
  2  3  1  0  0  0  0
  3  4  1  0  0  0  0
  4  5  2  0  0  0  0
  5  6  1  0  0  0  0
  6  7  1  0  0  0  0
  7  8  2  0  0  0  0
  8  9  1  0  0  0  0
  9 10  2  0  0  0  0
 10 11  1  0  0  0  0
 10 12  1  0  0  0  0
 12 13  2  0  0  0  0
  4 13  1  0  0  0  0
  7 13  1  0  0  0  0
M  END
> <DATABASE_ID>
DB08839

> <DATABASE_NAME>
drugbank

> <SMILES>
NCCC1=CNC2=CC=C(O)C=C12

> <INCHI_IDENTIFIER>
InChI=1S/C10H12N2O/c11-4-3-7-6-12-10-2-1-8(13)5-9(7)10/h1-2,5-6,12-13H,3-4,11H2

> <INCHI_KEY>
QZAYGJVTTNCVMB-UHFFFAOYSA-N

> <FORMULA>
C10H12N2O

> <MOLECULAR_WEIGHT>
176.2151

> <EXACT_MASS>
176.094963016

> <JCHEM_ACCEPTOR_COUNT>
2

> <JCHEM_AVERAGE_POLARIZABILITY>
19.31341691256239

> <JCHEM_BIOAVAILABILITY>
1

> <JCHEM_DONOR_COUNT>
3

> <JCHEM_FORMAL_CHARGE>
0

> <JCHEM_GHOSE_FILTER>
1

> <JCHEM_IUPAC>
3-(2-aminoethyl)-1H-indol-5-ol

> <ALOGPS_LOGP>
0.56

> <JCHEM_LOGP>
0.48154800923293156

> <ALOGPS_LOGS>
-1.85

> <JCHEM_MDDR_LIKE_RULE>
0

> <JCHEM_NUMBER_OF_RINGS>
2

> <JCHEM_PHYSIOLOGICAL_CHARGE>
1

> <JCHEM_PKA>
18.223535339159515

> <JCHEM_PKA_STRONGEST_ACIDIC>
9.314034178077875

> <JCHEM_PKA_STRONGEST_BASIC>
10.004289627293197

> <JCHEM_POLAR_SURFACE_AREA>
62.040000000000006

> <JCHEM_REFRACTIVITY>
52.3538

> <JCHEM_ROTATABLE_BOND_COUNT>
2

> <JCHEM_RULE_OF_FIVE>
1

> <ALOGPS_SOLUBILITY>
2.50e+00 g/l

> <JCHEM_TRADITIONAL_IUPAC>
serotonin

> <JCHEM_VEBER_RULE>
0

> <DRUGBANK_ID>
DB08839

> <DRUG_GROUPS>
investigational; nutraceutical

> <GENERIC_NAME>
Serotonin

> <SYNONYMS>
3-(2-Aminoethyl)-1H-indol-5-ol; 5-HT; 5-Hydroxytryptamine; Enteramine; sérotonine; thrombocytin; thrombotonin

> <INTERNATIONAL_BRANDS>
5-HTP; HTP Calm; Natural 5-HTP; Seotonin; Super 5-HTP

> <SALTS>
Serotonin hydrochloride

$$$$
Indole-3-acetic acid.mol
  Mrv0541 02231218262D          

 10 10  0  0  0  0            999 V2000
   -2.2687   -0.7145    0.0000 N   0  0  0  0  0  0  0  0  0  0  0  0
   -1.4438   -0.7145    0.0000 C   0  0  0  0  0  0  0  0  0  0  0  0
   -1.0312    0.0000    0.0000 C   0  0  0  0  0  0  0  0  0  0  0  0
   -0.2062    0.0000    0.0000 C   0  0  0  0  0  0  0  0  0  0  0  0
    0.2062    0.7145    0.0000 C   0  0  0  0  0  0  0  0  0  0  0  0
    1.0313    0.7145    0.0000 C   0  0  0  0  0  0  0  0  0  0  0  0
    1.4438    0.0000    0.0000 C   0  0  0  0  0  0  0  0  0  0  0  0
    2.2687    0.0000    0.0000 O   0  0  0  0  0  0  0  0  0  0  0  0
    1.0313   -0.7145    0.0000 C   0  0  0  0  0  0  0  0  0  0  0  0
    0.2062   -0.7145    0.0000 C   0  0  0  0  0  0  0  0  0  0  0  0
  1  2  1  0  0  0  0
  2  3  1  0  0  0  0
  3  4  1  0  0  0  0
  4  5  2  0  0  0  0
  5  6  1  0  0  0  0
  6  7  2  0  0  0  0
  7  8  1  0  0  0  0
  7  9  1  0  0  0  0
  9 10  2  0  0  0  0
  4 10  1  0  0  0  0
M  END
> <DATABASE_ID>
DB08841

> <DATABASE_NAME>
drugbank

> <SMILES>
NCCC1=CC=C(O)C=C1

> <INCHI_IDENTIFIER>
InChI=1S/C8H11NO/c9-6-5-7-1-3-8(10)4-2-7/h1-4,10H,5-6,9H2

> <INCHI_KEY>
DZGWFCGJZKJUFP-UHFFFAOYSA-N

> <FORMULA>
C8H11NO

> <MOLECULAR_WEIGHT>
137.179

> <EXACT_MASS>
137.084063979

> <JCHEM_ACCEPTOR_COUNT>
2

> <JCHEM_AVERAGE_POLARIZABILITY>
15.332804080654087

> <JCHEM_BIOAVAILABILITY>
1

> <JCHEM_DONOR_COUNT>
2

> <JCHEM_FORMAL_CHARGE>
0

> <JCHEM_GHOSE_FILTER>
0

> <JCHEM_IUPAC>
4-(2-aminoethyl)phenol

> <ALOGPS_LOGP>
-0.14

> <JCHEM_LOGP>
0.6797131598312175

> <ALOGPS_LOGS>
-1.38

> <JCHEM_MDDR_LIKE_RULE>
0

> <JCHEM_NUMBER_OF_RINGS>
1

> <JCHEM_PHYSIOLOGICAL_CHARGE>
1

> <JCHEM_PKA_STRONGEST_ACIDIC>
10.410817992116419

> <JCHEM_PKA_STRONGEST_BASIC>
9.663317955732815

> <JCHEM_POLAR_SURFACE_AREA>
46.25

> <JCHEM_REFRACTIVITY>
41.267300000000006

> <JCHEM_ROTATABLE_BOND_COUNT>
2

> <JCHEM_RULE_OF_FIVE>
1

> <ALOGPS_SOLUBILITY>
5.72e+00 g/l

> <JCHEM_TRADITIONAL_IUPAC>
tyramine

> <JCHEM_VEBER_RULE>
0

> <DRUGBANK_ID>
DB08841

> <DRUG_GROUPS>
investigational; nutraceutical

> <GENERIC_NAME>
Tyramine

> <SALTS>
Tyramine hydrochloride

$$$$
 
  Mrv1909 03172019332D          

 10  9  0  0  1  0            999 V2000
   -0.4903   -4.1950    0.0000 O   0  0  0  0  0  0  0  0  0  0  0  0
   -0.4903   -3.3700    0.0000 C   0  0  0  0  0  0  0  0  0  0  0  0
   -1.2048   -2.9575    0.0000 C   0  0  0  0  0  0  0  0  0  0  0  0
   -1.9193   -3.3700    0.0000 C   0  0  0  0  0  0  0  0  0  0  0  0
   -2.6337   -2.9575    0.0000 C   0  0  0  0  0  0  0  0  0  0  0  0
   -2.6337   -2.1325    0.0000 O   0  0  0  0  0  0  0  0  0  0  0  0
    0.2241   -2.9575    0.0000 C   0  0  0  0  0  0  0  0  0  0  0  0
    0.2241   -2.1325    0.0000 O   0  0  0  0  0  0  0  0  0  0  0  0
    0.9385   -3.3701    0.0000 O   0  0  0  0  0  0  0  0  0  0  0  0
   -3.3481   -3.3700    0.0000 O   0  0  0  0  0  0  0  0  0  0  0  0
  2  3  1  0  0  0  0
  2  7  1  0  0  0  0
  3  4  1  0  0  0  0
  4  5  1  0  0  0  0
  5  6  2  0  0  0  0
  7  8  2  0  0  0  0
  7  9  1  0  0  0  0
  5 10  1  0  0  0  0
  2  1  2  0  0  0  0
M  END
> <DATABASE_ID>
DB08845

> <DATABASE_NAME>
drugbank

> <SMILES>
OC(=O)CCC(=O)C(O)=O

> <INCHI_IDENTIFIER>
InChI=1S/C5H6O5/c6-3(5(9)10)1-2-4(7)8/h1-2H2,(H,7,8)(H,9,10)

> <INCHI_KEY>
KPGXRSRHYNQIFN-UHFFFAOYSA-N

> <FORMULA>
C5H6O5

> <MOLECULAR_WEIGHT>
146.0981

> <EXACT_MASS>
146.021523302

> <JCHEM_ACCEPTOR_COUNT>
5

> <JCHEM_ATOM_COUNT>
16

> <JCHEM_AVERAGE_NEUTRAL_MICROSPECIES_CHARGE>
-0.002315444479680504

> <JCHEM_AVERAGE_POLARIZABILITY>
12.166536450524555

> <JCHEM_BIOAVAILABILITY>
1

> <JCHEM_DONOR_COUNT>
2

> <JCHEM_FORMAL_CHARGE>
0

> <JCHEM_GHOSE_FILTER>
0

> <JCHEM_IUPAC>
2-oxopentanedioic acid

> <ALOGPS_LOGP>
-0.60

> <JCHEM_LOGP>
-0.1092632996666667

> <ALOGPS_LOGS>
-0.44

> <JCHEM_MDDR_LIKE_RULE>
0

> <JCHEM_NEUTRAL_CHARGE>
-2

> <JCHEM_NUMBER_OF_RINGS>
0

> <JCHEM_PHYSIOLOGICAL_CHARGE>
-2

> <JCHEM_PKA>
3.8661081567892333

> <JCHEM_PKA_STRONGEST_ACIDIC>
2.663960637841894

> <JCHEM_PKA_STRONGEST_BASIC>
-9.667717541536742

> <JCHEM_POLAR_SURFACE_AREA>
91.66999999999999

> <JCHEM_REFRACTIVITY>
28.883000000000003

> <JCHEM_ROTATABLE_BOND_COUNT>
4

> <JCHEM_RULE_OF_FIVE>
1

> <ALOGPS_SOLUBILITY>
5.31e+01 g/l

> <JCHEM_TRADITIONAL_IUPAC>
oxoglutarate

> <JCHEM_VEBER_RULE>
0

> <DRUGBANK_ID>
DB08845

> <SECONDARY_ACCESSION_NUMBERS>
DB02926; DB03806; EXPT00137

> <DRUG_GROUPS>
experimental; investigational; nutraceutical

> <GENERIC_NAME>
Oxogluric acid

> <SYNONYMS>
2-Ketoglutaric acid; 2-oxoglutaric acid; 2-oxopentanedioic acid; alpha-Ketoglutaric acid; Ketoglutaric acid; Oxoglurate; α-Ketoglutarate

$$$$

  Mrv1718006221812452D          

 24 23  0  0  0  0            999 V2000
   -0.3572    1.6499    0.0000 C   0  0  0  0  0  0  0  0  0  0  0  0
   -1.0717    2.0625    0.0000 C   0  0  0  0  0  0  0  0  0  0  0  0
   -1.7862    1.6499    0.0000 C   0  0  0  0  0  0  0  0  0  0  0  0
   -2.5007    2.0625    0.0000 C   0  0  0  0  0  0  0  0  0  0  0  0
   -3.2149    1.6499    0.0000 C   0  0  0  0  0  0  0  0  0  0  0  0
   -3.2149    0.8250    0.0000 C   0  0  0  0  0  0  0  0  0  0  0  0
   -3.9294    0.4125    0.0000 C   0  0  0  0  0  0  0  0  0  0  0  0
   -3.9294   -0.4125    0.0000 C   0  0  0  0  0  0  0  0  0  0  0  0
   -3.2149   -0.8249    0.0000 C   0  0  0  0  0  0  0  0  0  0  0  0
   -3.2149   -1.6499    0.0000 C   0  0  0  0  0  0  0  0  0  0  0  0
   -2.5007   -2.0625    0.0000 C   0  0  0  0  0  0  0  0  0  0  0  0
   -1.7862   -1.6499    0.0000 C   0  0  0  0  0  0  0  0  0  0  0  0
   -1.0717   -2.0625    0.0000 C   0  0  0  0  0  0  0  0  0  0  0  0
   -0.3572   -1.6499    0.0000 C   0  0  0  0  0  0  0  0  0  0  0  0
   -0.3572   -0.8249    0.0000 C   0  0  0  0  0  0  0  0  0  0  0  0
    0.3572   -0.4125    0.0000 C   0  0  0  0  0  0  0  0  0  0  0  0
    1.0716   -0.8249    0.0000 C   0  0  0  0  0  0  0  0  0  0  0  0
   -0.3572    0.8250    0.0000 C   0  0  0  0  0  0  0  0  0  0  0  0
    0.3572    0.4125    0.0000 C   0  0  0  0  0  0  0  0  0  0  0  0
    1.7861    0.4125    0.0000 O   0  0  0  0  0  0  0  0  0  0  0  0
    2.5006   -0.8249    0.0000 O   0  0  0  0  0  0  0  0  0  0  0  0
    1.7861   -0.4125    0.0000 C   0  0  0  0  0  0  0  0  0  0  0  0
    3.2150   -0.4125    0.0000 C   0  0  0  0  0  0  0  0  0  0  0  0
    3.9294   -0.8249    0.0000 C   0  0  0  0  0  0  0  0  0  0  0  0
 18  1  1  0  0  0  0
  1  2  2  0  0  0  0
  2  3  1  0  0  0  0
  3  4  1  0  0  0  0
  4  5  2  0  0  0  0
  5  6  1  0  0  0  0
  6  7  1  0  0  0  0
  7  8  2  0  0  0  0
  8  9  1  0  0  0  0
  9 10  1  0  0  0  0
 10 11  2  0  0  0  0
 11 12  1  0  0  0  0
 12 13  1  0  0  0  0
 13 14  2  0  0  0  0
 14 15  1  0  0  0  0
 15 16  1  0  0  0  0
 16 17  1  0  0  0  0
 17 22  1  0  0  0  0
 18 19  1  0  0  0  0
 22 20  2  0  0  0  0
 22 21  1  0  0  0  0
 21 23  1  0  0  0  0
 23 24  1  0  0  0  0
M  END
> <DATABASE_ID>
DB08887

> <DATABASE_NAME>
drugbank

> <SMILES>
CCOC(=O)CCC\C=C/C\C=C/C\C=C/C\C=C/C\C=C/CC

> <INCHI_IDENTIFIER>
InChI=1S/C22H34O2/c1-3-5-6-7-8-9-10-11-12-13-14-15-16-17-18-19-20-21-22(23)24-4-2/h5-6,8-9,11-12,14-15,17-18H,3-4,7,10,13,16,19-21H2,1-2H3/b6-5-,9-8-,12-11-,15-14-,18-17-

> <INCHI_KEY>
SSQPWTVBQMWLSZ-AAQCHOMXSA-N

> <FORMULA>
C22H34O2

> <MOLECULAR_WEIGHT>
330.5042

> <EXACT_MASS>
330.255880332

> <JCHEM_ACCEPTOR_COUNT>
1

> <JCHEM_ATOM_COUNT>
58

> <JCHEM_AVERAGE_POLARIZABILITY>
40.323020437114494

> <JCHEM_BIOAVAILABILITY>
0

> <JCHEM_DONOR_COUNT>
0

> <JCHEM_FORMAL_CHARGE>
0

> <JCHEM_GHOSE_FILTER>
0

> <JCHEM_IUPAC>
ethyl (5Z,8Z,11Z,14Z,17Z)-icosa-5,8,11,14,17-pentaenoate

> <ALOGPS_LOGP>
6.80

> <JCHEM_LOGP>
6.727951165

> <ALOGPS_LOGS>
-6.53

> <JCHEM_MDDR_LIKE_RULE>
0

> <JCHEM_NUMBER_OF_RINGS>
0

> <JCHEM_PHYSIOLOGICAL_CHARGE>
0

> <JCHEM_PKA_STRONGEST_BASIC>
-7.03224093634593

> <JCHEM_POLAR_SURFACE_AREA>
26.3

> <JCHEM_REFRACTIVITY>
110.5883

> <JCHEM_ROTATABLE_BOND_COUNT>
15

> <JCHEM_RULE_OF_FIVE>
0

> <ALOGPS_SOLUBILITY>
9.83e-05 g/l

> <JCHEM_TRADITIONAL_IUPAC>
ethyl eicosapentaenoate

> <JCHEM_VEBER_RULE>
0

> <DRUGBANK_ID>
DB08887

> <SECONDARY_ACCESSION_NUMBERS>
DB06291

> <DRUG_GROUPS>
approved; investigational; nutraceutical

> <GENERIC_NAME>
Icosapent ethyl

> <SYNONYMS>
(all-Z)-5,8,11,14,17-Eicosapentaenoic acid ethyl ester; all-cis-ethyl 5,8,11,14,17-icosapentaenoate; cis-Eicosapentaenoic acid ethyl ester; E-EPA; Eicosapentaenoic acid ethyl ester; ethyl (5Z,8Z,11Z,14Z,17Z)-eicosa-5,8,11,14,17-pentaenoate; ethyl (5Z,8Z,11Z,14Z,17Z)-eicosapentaenoate; ethyl (5Z,8Z,11Z,14Z,17Z)-icosapentaenoate; Ethyl (all cis)-5,8,11,14,17-icosapentaenoate; Ethyl all-cis-5,8,11,14,17-icosapentaenoate; Ethyl eicosapentaenoate; Ethyl icosapentate ; ethyl-eicosapentaenoic acid; Ethyl-EPA; Icosapent ethyl; Timnodonic acid ethyl ester

> <PRODUCTS>
Calcium PNV; Icosapent Ethyl; Vascepa

> <INTERNATIONAL_BRANDS>
Epadel

$$$$
Untitled Document-1
  Mrv0541 02231218542D          

 63 63  0  0  0  0            999 V2000
  -12.8605    0.2062    0.0000 C   0  0  0  0  0  0  0  0  0  0  0  0
  -12.8605   -0.6188    0.0000 C   0  0  0  0  0  0  0  0  0  0  0  0
  -13.5749   -1.0313    0.0000 C   0  0  0  0  0  0  0  0  0  0  0  0
  -14.2894   -0.6188    0.0000 C   0  0  0  0  0  0  0  0  0  0  0  0
  -14.2894    0.2062    0.0000 C   0  0  0  0  0  0  0  0  0  0  0  0
  -13.5749    0.6188    0.0000 C   0  0  0  0  0  0  0  0  0  0  0  0
  -12.1460    0.6188    0.0000 O   0  0  0  0  0  0  0  0  0  0  0  0
  -15.0039   -1.0313    0.0000 O   0  0  0  0  0  0  0  0  0  0  0  0
  -13.5749   -1.8563    0.0000 C   0  0  0  0  0  0  0  0  0  0  0  0
  -13.5749    1.4437    0.0000 O   0  0  0  0  0  0  0  0  0  0  0  0
  -14.2894    1.8563    0.0000 C   0  0  0  0  0  0  0  0  0  0  0  0
  -15.0039    0.6187    0.0000 O   0  0  0  0  0  0  0  0  0  0  0  0
  -15.7184    0.2062    0.0000 C   0  0  0  0  0  0  0  0  0  0  0  0
  -12.1460   -1.0313    0.0000 C   0  0  0  0  0  0  0  0  0  0  0  0
  -11.4315   -0.6188    0.0000 C   0  0  0  0  0  0  0  0  0  0  0  0
  -10.7171   -1.0313    0.0000 C   0  0  0  0  0  0  0  0  0  0  0  0
  -10.0026   -0.6188    0.0000 C   0  0  0  0  0  0  0  0  0  0  0  0
   -9.2881   -1.0313    0.0000 C   0  0  0  0  0  0  0  0  0  0  0  0
   -8.5737   -0.6188    0.0000 C   0  0  0  0  0  0  0  0  0  0  0  0
   -7.8592   -1.0313    0.0000 C   0  0  0  0  0  0  0  0  0  0  0  0
   -7.1447   -0.6188    0.0000 C   0  0  0  0  0  0  0  0  0  0  0  0
   -6.4302   -1.0313    0.0000 C   0  0  0  0  0  0  0  0  0  0  0  0
   -5.7158   -0.6188    0.0000 C   0  0  0  0  0  0  0  0  0  0  0  0
   -5.0013   -1.0313    0.0000 C   0  0  0  0  0  0  0  0  0  0  0  0
   -4.2868   -0.6188    0.0000 C   0  0  0  0  0  0  0  0  0  0  0  0
   -3.5724   -1.0313    0.0000 C   0  0  0  0  0  0  0  0  0  0  0  0
   -2.8579   -0.6188    0.0000 C   0  0  0  0  0  0  0  0  0  0  0  0
   -2.1434   -1.0313    0.0000 C   0  0  0  0  0  0  0  0  0  0  0  0
   -1.4289   -0.6188    0.0000 C   0  0  0  0  0  0  0  0  0  0  0  0
   -0.7145   -1.0313    0.0000 C   0  0  0  0  0  0  0  0  0  0  0  0
    0.0000   -0.6188    0.0000 C   0  0  0  0  0  0  0  0  0  0  0  0
    0.7145   -1.0313    0.0000 C   0  0  0  0  0  0  0  0  0  0  0  0
    1.4289   -0.6188    0.0000 C   0  0  0  0  0  0  0  0  0  0  0  0
    2.1434   -1.0313    0.0000 C   0  0  0  0  0  0  0  0  0  0  0  0
    2.8579   -0.6188    0.0000 C   0  0  0  0  0  0  0  0  0  0  0  0
    3.5724   -1.0313    0.0000 C   0  0  0  0  0  0  0  0  0  0  0  0
    4.2868   -0.6188    0.0000 C   0  0  0  0  0  0  0  0  0  0  0  0
    5.0013   -1.0313    0.0000 C   0  0  0  0  0  0  0  0  0  0  0  0
    5.7158   -0.6188    0.0000 C   0  0  0  0  0  0  0  0  0  0  0  0
    6.4302   -1.0313    0.0000 C   0  0  0  0  0  0  0  0  0  0  0  0
    7.1447   -0.6188    0.0000 C   0  0  0  0  0  0  0  0  0  0  0  0
    7.8592   -1.0313    0.0000 C   0  0  0  0  0  0  0  0  0  0  0  0
    8.5737   -0.6188    0.0000 C   0  0  0  0  0  0  0  0  0  0  0  0
    9.2881   -1.0313    0.0000 C   0  0  0  0  0  0  0  0  0  0  0  0
   10.0026   -0.6188    0.0000 C   0  0  0  0  0  0  0  0  0  0  0  0
   10.7171   -1.0313    0.0000 C   0  0  0  0  0  0  0  0  0  0  0  0
   11.4315   -0.6188    0.0000 C   0  0  0  0  0  0  0  0  0  0  0  0
   12.1460   -1.0313    0.0000 C   0  0  0  0  0  0  0  0  0  0  0  0
   12.8605   -0.6188    0.0000 C   0  0  0  0  0  0  0  0  0  0  0  0
   13.5749   -1.0313    0.0000 C   0  0  0  0  0  0  0  0  0  0  0  0
   14.2894   -0.6188    0.0000 C   0  0  0  0  0  0  0  0  0  0  0  0
   15.0039   -1.0313    0.0000 C   0  0  0  0  0  0  0  0  0  0  0  0
   15.7184   -0.6188    0.0000 C   0  0  0  0  0  0  0  0  0  0  0  0
   15.0039   -1.8563    0.0000 C   0  0  0  0  0  0  0  0  0  0  0  0
   12.1460   -1.8563    0.0000 C   0  0  0  0  0  0  0  0  0  0  0  0
    9.2881   -1.8563    0.0000 C   0  0  0  0  0  0  0  0  0  0  0  0
    6.4302   -1.8563    0.0000 C   0  0  0  0  0  0  0  0  0  0  0  0
    3.5724   -1.8563    0.0000 C   0  0  0  0  0  0  0  0  0  0  0  0
    0.7145   -1.8563    0.0000 C   0  0  0  0  0  0  0  0  0  0  0  0
   -2.1434   -1.8563    0.0000 C   0  0  0  0  0  0  0  0  0  0  0  0
   -5.0013   -1.8563    0.0000 C   0  0  0  0  0  0  0  0  0  0  0  0
   -7.8592   -1.8563    0.0000 C   0  0  0  0  0  0  0  0  0  0  0  0
  -10.7171   -1.8563    0.0000 C   0  0  0  0  0  0  0  0  0  0  0  0
  1  2  1  0  0  0  0
  2  3  2  0  0  0  0
  3  4  1  0  0  0  0
  4  5  1  0  0  0  0
  5  6  2  0  0  0  0
  1  6  1  0  0  0  0
  1  7  2  0  0  0  0
  4  8  2  0  0  0  0
  3  9  1  0  0  0  0
 10 11  1  0  0  0  0
  6 10  1  0  0  0  0
 12 13  1  0  0  0  0
  5 12  1  0  0  0  0
 14 15  1  0  0  0  0
 15 16  2  0  0  0  0
 16 17  1  0  0  0  0
 17 18  1  0  0  0  0
 18 19  1  0  0  0  0
 19 20  2  0  0  0  0
 20 21  1  0  0  0  0
 21 22  1  0  0  0  0
 22 23  1  0  0  0  0
 23 24  2  0  0  0  0
 24 25  1  0  0  0  0
 25 26  1  0  0  0  0
 26 27  1  0  0  0  0
 27 28  2  0  0  0  0
 28 29  1  0  0  0  0
 29 30  1  0  0  0  0
 30 31  1  0  0  0  0
 31 32  2  0  0  0  0
 32 33  1  0  0  0  0
 33 34  1  0  0  0  0
 34 35  1  0  0  0  0
 35 36  2  0  0  0  0
 36 37  1  0  0  0  0
 37 38  1  0  0  0  0
 38 39  1  0  0  0  0
 39 40  2  0  0  0  0
 40 41  1  0  0  0  0
 41 42  1  0  0  0  0
 42 43  1  0  0  0  0
 43 44  2  0  0  0  0
 44 45  1  0  0  0  0
 45 46  1  0  0  0  0
 46 47  1  0  0  0  0
 47 48  2  0  0  0  0
 48 49  1  0  0  0  0
 49 50  1  0  0  0  0
 50 51  1  0  0  0  0
 51 52  2  0  0  0  0
 52 53  1  0  0  0  0
 52 54  1  0  0  0  0
 48 55  1  0  0  0  0
 44 56  1  0  0  0  0
 40 57  1  0  0  0  0
 36 58  1  0  0  0  0
 32 59  1  0  0  0  0
 28 60  1  0  0  0  0
 24 61  1  0  0  0  0
 20 62  1  0  0  0  0
 16 63  1  0  0  0  0
  2 14  1  0  0  0  0
M  END
> <DATABASE_ID>
DB09270

> <DATABASE_NAME>
drugbank

> <SMILES>
COC1=C(OC)C(=O)C(C\C=C(/C)CC\C=C(/C)CC\C=C(/C)CC\C=C(/C)CC\C=C(/C)CC\C=C(/C)CC\C=C(/C)CC\C=C(/C)CC\C=C(/C)CCC=C(C)C)=C(C)C1=O

> <INCHI_IDENTIFIER>
InChI=1S/C59H90O4/c1-44(2)24-15-25-45(3)26-16-27-46(4)28-17-29-47(5)30-18-31-48(6)32-19-33-49(7)34-20-35-50(8)36-21-37-51(9)38-22-39-52(10)40-23-41-53(11)42-43-55-54(12)56(60)58(62-13)59(63-14)57(55)61/h24,26,28,30,32,34,36,38,40,42H,15-23,25,27,29,31,33,35,37,39,41,43H2,1-14H3/b45-26+,46-28+,47-30+,48-32+,49-34+,50-36+,51-38+,52-40+,53-42+

> <INCHI_KEY>
ACTIUHUUMQJHFO-UPTCCGCDSA-N

> <FORMULA>
C59H90O4

> <MOLECULAR_WEIGHT>
863.3435

> <EXACT_MASS>
862.683911368

> <JCHEM_ACCEPTOR_COUNT>
4

> <JCHEM_AVERAGE_POLARIZABILITY>
112.37604011484702

> <JCHEM_BIOAVAILABILITY>
0

> <JCHEM_DONOR_COUNT>
0

> <JCHEM_FORMAL_CHARGE>
0

> <JCHEM_GHOSE_FILTER>
0

> <JCHEM_IUPAC>
2-[(2E,6E,10E,14E,18E,22E,26E,30E,34E)-3,7,11,15,19,23,27,31,35,39-decamethyltetraconta-2,6,10,14,18,22,26,30,34,38-decaen-1-yl]-5,6-dimethoxy-3-methylcyclohexa-2,5-diene-1,4-dione

> <ALOGPS_LOGP>
9.94

> <JCHEM_LOGP>
17.156128291

> <ALOGPS_LOGS>
-6.65

> <JCHEM_MDDR_LIKE_RULE>
0

> <JCHEM_NUMBER_OF_RINGS>
1

> <JCHEM_PHYSIOLOGICAL_CHARGE>
0

> <JCHEM_PKA_STRONGEST_BASIC>
-4.718903581971888

> <JCHEM_POLAR_SURFACE_AREA>
52.60000000000001

> <JCHEM_REFRACTIVITY>
286.60519999999997

> <JCHEM_ROTATABLE_BOND_COUNT>
31

> <JCHEM_RULE_OF_FIVE>
0

> <ALOGPS_SOLUBILITY>
1.93e-04 g/l

> <JCHEM_TRADITIONAL_IUPAC>
coenzyme-Q10

> <JCHEM_VEBER_RULE>
0

> <DRUGBANK_ID>
DB09270

> <DRUG_GROUPS>
approved; investigational; nutraceutical

> <GENERIC_NAME>
Ubidecarenone

> <SYNONYMS>
Coenzyme Q-10; Coenzyme Q10; Ubidecarenone

> <PRODUCTS>
Acti-ubiquinone 50 Cap 50mg; B.E.T. Complex; Biogard Ubiquinone Cap 30mg; Biomed Co Q 10; Biosculpt; C.V. Formula; Cell Tech Coenzyme Q10 - Cap 30mg; Cellsparc 360; Co Q 10 - 50mg Cap; Co-Q 10 Capsules 50 mg; Co-Q-10 Capsules 30mg; Co-enzyme Q-10; Co-enzyme Q-10 Capsules; Co-enzyme Q10 100mg; Co-enzyme Q10 30mg Capsules; Co-enzyme Q10 50mg Capsules; Co-enzyme Q10 60 mg; Co-enzyme Q10 60mg Capsules; Co-enzyme Q10 Cap 30mg; Co-enzyme-q10 Tab; Co-q10 (ubiquinone); Co-q10 - Cap 60mg; Co-q10 30mg; Co-q10 30mg (ubiquinone); Co-q10 60 Mg Capsules; Co-q10 Cap 30mg; Co-q10 M.R.B. 100mg and Vitamin E; Co-q10 M.R.B. 60mg; Co-q10 and Vitamin E; Coen.q10w.vit.c and E Beta-car.se Cu Zn Mn; Coenzyme Co Q10 Cap 10mg; Coenzyme Co Q10 Cap 30mg; Coenzyme Q-10; Coenzyme Q-10 - 30 mg; Coenzyme Q-10 60 mg; Coenzyme Q10; Coenzyme Q10 (60 Mg); Coenzyme Q10 +; Coenzyme Q10 - 10mg (ubiquinone); Coenzyme Q10 - 30mg (ubiquinone); Coenzyme Q10 - Capsule 30 mg; Coenzyme Q10 100 mg; Coenzyme Q10 100mg; Coenzyme Q10 30 mg; Coenzyme Q10 30mg; Coenzyme Q10 50 mg; Coenzyme Q10 50mg; Coenzyme Q10 60mg; Coenzyme Q10 60mg Cap; Coenzyme Q10 60mg Capsules; Coenzyme Q10 80mg; Coenzyme Q10 Cap 15mg; Coenzyme Q10 Cap 30mg; Coenzyme Q10 Isotonix Vitamin and Mineral Supplement; Coenzyme Q10 Tab 10mg; Coenzyme Q10 Ubiquinone 60mg - Cap; Coenzyme Q10 With Hawthorn Extract and Citrus Bioflavonoids; Coenzyme-q10 M.R.B.; Coq-10; Coq10; Coq10 With E400 Iu; Coquinone Coenzyme Q-10 Capsules; Corvite Free; Daily Supplement Packs; Dyzbac; Extra 11; Fibrik; Folic-K; Folica BE; Folica-V; Folika-V; Formula B; Formula Cp Cap; Formula Dpr; Formula O.C.; Formula S.E.; Formula Statin Support; Genicin Vita-Q; IQQU Acne Serum; L.I.P. Complex; Lexazin; Mebolex; Mebolic; Medi-10; Methazel; N.E.U. Complex; N.U.T. Complex; Neutral C + Coenzyme Q10 - Cap; Neutral C + Coenzyme Q10 Plus Vitamins & Minerals; Nicadan ZX; Now Coq10 100 mg; Nutri-chem Coenzyme Q10 20mg; Omniquin; Omnivex; Oveeza; PreQue 10; Q-10 Plus; Q-gel Coenzyme Q10; Q-gel Forte Coenzyme Q10; Qmelt; Rocky Mountain Co Q 10 Cap 25mg; Super 7 Vitamin and Mineral Supplement; Taliment; Thera Q Plus; Tru-sorb Coq10; Ubiquinone Capsules 20mg; Usana Optimizer Coquinone Coenzyme Q-10 Capsules; Vita-Rx Diabetic Vitamin; VitaXyme; Vitamin E and Coq10; Vitazyme; Watkins Coq10; Xyzbac; Xyzbac G; Zavitrol; Zyvit; tensioSAN

> <SALTS>
Coenzyme q10, (2z)-

$$$$

  Mrv1718006191812222D          

 29 28  0  0  0  0            999 V2000
   -3.2177   -0.8253    0.0000 C   0  0  0  0  0  0  0  0  0  0  0  0
   -3.2177   -0.0002    0.0000 C   0  0  0  0  0  0  0  0  0  0  0  0
   -3.9324   -1.2380    0.0000 C   0  0  0  0  0  0  0  0  0  0  0  0
   -3.9324    0.4123    0.0000 C   0  0  0  0  0  0  0  0  0  0  0  0
   -4.6469   -0.8253    0.0000 C   0  0  0  0  0  0  0  0  0  0  0  0
   -4.6469   -0.0002    0.0000 C   0  0  0  0  0  0  0  0  0  0  0  0
   -2.5033   -1.2379    0.0000 C   0  0  0  0  0  0  0  0  0  0  0  0
   -1.7886   -0.8252    0.0000 C   0  0  0  0  0  0  0  0  0  0  0  0
   -2.5033    0.4123    0.0000 C   0  0  0  0  0  0  0  0  0  0  0  0
   -1.7887   -0.0002    0.0000 C   0  0  0  0  0  0  0  0  0  0  0  0
   -1.0740   -1.2377    0.0000 C   0  0  0  0  0  0  0  0  0  0  0  0
   -0.3597   -0.8250    0.0000 C   0  0  0  0  0  0  0  0  0  0  0  0
   -1.0741    0.4123    0.0000 C   0  0  0  0  0  0  0  0  0  0  0  0
   -0.3597    0.0000    0.0000 C   0  0  0  0  0  0  0  0  0  0  0  0
    0.3548   -1.2375    0.0000 C   0  0  0  0  0  0  0  0  0  0  0  0
    1.0691   -0.8248    0.0000 C   0  0  0  0  0  0  0  0  0  0  0  0
    0.3546    0.4124    0.0000 C   0  0  0  0  0  0  0  0  0  0  0  0
    1.0690    0.0000    0.0000 C   0  0  0  0  0  0  0  0  0  0  0  0
    1.7836   -1.2372    0.0000 C   0  0  0  0  0  0  0  0  0  0  0  0
    2.4980   -0.8245    0.0000 C   0  0  0  0  0  0  0  0  0  0  0  0
    1.7833    0.4126    0.0000 C   0  0  0  0  0  0  0  0  0  0  0  0
    2.4979    0.0003    0.0000 C   0  0  0  0  0  0  0  0  0  0  0  0
    3.2123   -1.2368    0.0000 C   0  0  0  0  0  0  0  0  0  0  0  0
    3.9266   -0.8241    0.0000 C   0  0  0  0  0  0  0  0  0  0  0  0
    3.2119    0.4128    0.0000 C   0  0  0  0  0  0  0  0  0  0  0  0
    4.6469   -1.2280    0.0000 C   0  0  0  0  0  0  0  0  0  0  0  0
    3.9312   -0.0052    0.0000 C   0  0  0  0  0  0  0  0  0  0  0  0
    4.6469    0.4128    0.0000 C   0  0  0  0  0  0  0  0  0  0  0  0
    4.6469    1.2380    0.0000 O   0  0  0  0  0  0  0  0  0  0  0  0
  3  1  1  0  0  0  0
  4  2  1  0  0  0  0
  5  3  1  0  0  0  0
  6  4  1  0  0  0  0
  6  5  1  0  0  0  0
  7  1  1  0  0  0  0
  8  7  1  0  0  0  0
  9  2  1  0  0  0  0
 10  9  1  0  0  0  0
 11  8  1  0  0  0  0
 12 11  1  0  0  0  0
 13 10  1  0  0  0  0
 14 13  1  0  0  0  0
 15 12  1  0  0  0  0
 16 15  1  0  0  0  0
 17 14  1  0  0  0  0
 18 17  1  0  0  0  0
 19 16  1  0  0  0  0
 20 19  1  0  0  0  0
 21 18  1  0  0  0  0
 22 21  1  0  0  0  0
 23 20  1  0  0  0  0
 24 23  1  0  0  0  0
 25 22  1  0  0  0  0
 24 26  1  0  0  0  0
 25 27  1  0  0  0  0
 27 28  1  0  0  0  0
 28 29  1  0  0  0  0
M  END
> <DATABASE_ID>
DB11220

> <DATABASE_NAME>
drugbank

> <SMILES>
CCCCCCCCCCCCCCCCCCCCCCCCCCCCO

> <INCHI_IDENTIFIER>
InChI=1S/C28H58O/c1-2-3-4-5-6-7-8-9-10-11-12-13-14-15-16-17-18-19-20-21-22-23-24-25-26-27-28-29/h29H,2-28H2,1H3

> <INCHI_KEY>
CNNRPFQICPFDPO-UHFFFAOYSA-N

> <FORMULA>
C28H58O

> <MOLECULAR_WEIGHT>
410.7595

> <EXACT_MASS>
410.448766478

> <JCHEM_ACCEPTOR_COUNT>
1

> <JCHEM_ATOM_COUNT>
87

> <JCHEM_AVERAGE_POLARIZABILITY>
60.171138252476204

> <JCHEM_BIOAVAILABILITY>
0

> <JCHEM_DONOR_COUNT>
1

> <JCHEM_FORMAL_CHARGE>
0

> <JCHEM_GHOSE_FILTER>
0

> <JCHEM_IUPAC>
octacosan-1-ol

> <ALOGPS_LOGP>
10.25

> <JCHEM_LOGP>
11.474969905999998

> <ALOGPS_LOGS>
-7.52

> <JCHEM_MDDR_LIKE_RULE>
0

> <JCHEM_NUMBER_OF_RINGS>
0

> <JCHEM_PHYSIOLOGICAL_CHARGE>
0

> <JCHEM_PKA_STRONGEST_ACIDIC>
16.84394282199214

> <JCHEM_PKA_STRONGEST_BASIC>
-1.9922594096606376

> <JCHEM_POLAR_SURFACE_AREA>
20.23

> <JCHEM_REFRACTIVITY>
132.5589

> <JCHEM_ROTATABLE_BOND_COUNT>
26

> <JCHEM_RULE_OF_FIVE>
0

> <ALOGPS_SOLUBILITY>
1.25e-05 g/l

> <JCHEM_TRADITIONAL_IUPAC>
octacosanol

> <JCHEM_VEBER_RULE>
0

> <DRUGBANK_ID>
DB11220

> <DRUG_GROUPS>
nutraceutical

> <GENERIC_NAME>
Octacosanol

> <SYNONYMS>
1-Octacosanol; cluytyl alcohol; montanyl alcohol; n-octacosanol; Octacosanol; Octacosyl alcohol

> <PRODUCTS>
Ginsamin Power

$$$$

  Mrv1909 12021903562D          

 13 12  0  0  0  0            999 V2000
    2.5006   -0.2062    0.0000 O   0  0  0  0  0  0  0  0  0  0  0  0
    1.7861    0.2062    0.0000 C   0  0  0  0  0  0  0  0  0  0  0  0
   -0.3572   -0.2062    0.0000 C   0  0  0  0  0  0  0  0  0  0  0  0
    0.3572    0.2062    0.0000 N   0  0  0  0  0  0  0  0  0  0  0  0
   -1.0716    0.2062    0.0000 N   0  0  0  0  0  0  0  0  0  0  0  0
    1.0717   -0.2062    0.0000 C   0  0  0  0  0  0  0  0  0  0  0  0
   -1.7861   -0.2062    0.0000 P   0  0  0  0  0  0  0  0  0  0  0  0
   -0.3572   -1.0312    0.0000 N   0  0  0  0  0  0  0  0  0  0  0  0
    0.3572    1.0312    0.0000 C   0  0  0  0  0  0  0  0  0  0  0  0
   -1.7861   -1.0312    0.0000 O   0  0  0  0  0  0  0  0  0  0  0  0
   -2.5006    0.2062    0.0000 O   0  0  0  0  0  0  0  0  0  0  0  0
    1.7861    1.0312    0.0000 O   0  0  0  0  0  0  0  0  0  0  0  0
   -2.5006   -0.6187    0.0000 O   0  0  0  0  0  0  0  0  0  0  0  0
  2  1  1  0  0  0  0
  2 12  2  0  0  0  0
  3  8  2  0  0  0  0
  3  4  1  0  0  0  0
  4  9  1  0  0  0  0
  3  5  1  0  0  0  0
  6  2  1  0  0  0  0
  4  6  1  0  0  0  0
  5  7  1  0  0  0  0
  7 10  2  0  0  0  0
  7 11  1  0  0  0  0
  7 13  1  0  0  0  0
M  END
> <DATABASE_ID>
DB13191

> <DATABASE_NAME>
drugbank

> <SMILES>
CN(CC(O)=O)C(=N)NP(O)(O)=O

> <INCHI_IDENTIFIER>
InChI=1S/C4H10N3O5P/c1-7(2-3(8)9)4(5)6-13(10,11)12/h2H2,1H3,(H,8,9)(H4,5,6,10,11,12)

> <INCHI_KEY>
DRBBFCLWYRJSJZ-UHFFFAOYSA-N

> <FORMULA>
C4H10N3O5P

> <MOLECULAR_WEIGHT>
211.1131

> <EXACT_MASS>
211.035806957

> <JCHEM_ACCEPTOR_COUNT>
7

> <JCHEM_ATOM_COUNT>
23

> <JCHEM_AVERAGE_POLARIZABILITY>
16.816666956409527

> <JCHEM_BIOAVAILABILITY>
1

> <JCHEM_DONOR_COUNT>
5

> <JCHEM_FORMAL_CHARGE>
0

> <JCHEM_GHOSE_FILTER>
0

> <JCHEM_IUPAC>
2-(N-methyl-N'-phosphonocarbamimidamido)acetic acid

> <ALOGPS_LOGP>
-2.01

> <JCHEM_LOGP>
-2.250537210811644

> <ALOGPS_LOGS>
-1.78

> <JCHEM_MDDR_LIKE_RULE>
0

> <JCHEM_NUMBER_OF_RINGS>
0

> <JCHEM_PHYSIOLOGICAL_CHARGE>
-2

> <JCHEM_PKA>
3.196526834051946

> <JCHEM_PKA_STRONGEST_ACIDIC>
-1.0991444291105295

> <JCHEM_PKA_STRONGEST_BASIC>
13.572339780195906

> <JCHEM_POLAR_SURFACE_AREA>
133.95000000000002

> <JCHEM_REFRACTIVITY>
53.17790000000001

> <JCHEM_ROTATABLE_BOND_COUNT>
3

> <JCHEM_RULE_OF_FIVE>
1

> <ALOGPS_SOLUBILITY>
3.52e+00 g/l

> <JCHEM_TRADITIONAL_IUPAC>
4-{5-methoxy-2-[(4-methoxy-3,5-dimethylpyridin-2-yl)methanesulfinyl]-1,3-benzodiazol-1-ylsulfonyl}phenoxyacetic acid

> <JCHEM_VEBER_RULE>
0

> <DRUGBANK_ID>
DB13191

> <DRUG_GROUPS>
nutraceutical

> <GENERIC_NAME>
Phosphocreatine

> <SYNONYMS>
Creatine phosphate; Creatine phosphic acid; Creatine-P; Fosfocreatine; N-(N-phosphonoamido)sarcosine; N-(Phosphonoamidino)sarcosine; N-phosphocreatine; N-Phosphorylcreatine; phosphorylcreatine

> <SALTS>
Phosphocreatine sodium

$$$$

  Mrv1718003251815152D          

 40 41  0  0  1  0            999 V2000
    7.1843   -5.3678    0.0000 C   0  0  0  0  0  0  0  0  0  0  0  0
    7.8987   -6.6053    0.0000 C   0  0  0  0  0  0  0  0  0  0  0  0
   10.7566   -6.6053    0.0000 C   0  0  0  0  0  0  0  0  0  0  0  0
   13.6145   -6.6053    0.0000 C   0  0  0  0  0  0  0  0  0  0  0  0
   18.9438   -3.1680    0.0000 C   0  0  0  0  0  0  0  0  0  0  0  0
   17.3189   -3.4545    0.0000 C   0  0  0  0  0  0  0  0  0  0  0  0
   19.4401   -5.9825    0.0000 C   0  0  0  0  0  0  0  0  0  0  0  0
   15.9421   -6.4123    0.0000 C   0  0  0  0  0  0  0  0  0  0  0  0
    9.3277   -5.7803    0.0000 C   0  0  0  0  0  0  0  0  0  0  0  0
   12.1856   -5.7803    0.0000 C   0  0  0  0  0  0  0  0  0  0  0  0
   15.0435   -5.7803    0.0000 C   0  0  0  0  0  0  0  0  0  0  0  0
    8.6132   -5.3678    0.0000 C   0  0  0  0  0  0  0  0  0  0  0  0
   10.0422   -5.3678    0.0000 C   0  0  0  0  0  0  0  0  0  0  0  0
   11.4711   -5.3678    0.0000 C   0  0  0  0  0  0  0  0  0  0  0  0
   12.9000   -5.3678    0.0000 C   0  0  0  0  0  0  0  0  0  0  0  0
   14.3290   -5.3678    0.0000 C   0  0  0  0  0  0  0  0  0  0  0  0
   21.3812   -2.7382    0.0000 C   0  0  0  0  0  0  0  0  0  0  0  0
   21.0991   -3.5135    0.0000 C   0  0  0  0  0  0  0  0  0  0  0  0
   17.8152   -6.2690    0.0000 C   0  0  0  0  0  0  0  0  0  0  0  0
   15.7579   -5.3678    0.0000 C   0  0  0  0  0  0  0  0  0  0  0  0
   17.0027   -6.4123    0.0000 C   0  0  0  0  0  0  0  0  0  0  0  0
    7.8987   -5.7803    0.0000 C   0  0  0  0  0  0  0  0  0  0  0  0
   10.7566   -5.7803    0.0000 C   0  0  2  0  0  0  0  0  0  0  0  0
   13.6145   -5.7803    0.0000 C   0  0  2  0  0  0  0  0  0  0  0  0
   18.6617   -3.9433    0.0000 C   0  0  0  0  0  0  0  0  0  0  0  0
   17.8492   -4.0865    0.0000 C   0  0  0  0  0  0  0  0  0  0  0  0
   18.9098   -5.3505    0.0000 C   0  0  0  0  0  0  0  0  0  0  0  0
   18.0973   -5.4938    0.0000 C   0  0  0  0  0  0  0  0  0  0  0  0
   22.1937   -2.5950    0.0000 C   0  0  0  0  0  0  0  0  0  0  0  0
   20.2866   -3.6567    0.0000 C   0  0  0  0  0  0  0  0  0  0  0  0
   19.1920   -4.5753    0.0000 C   0  0  0  0  0  0  0  0  0  0  0  0
   17.5670   -4.8618    0.0000 C   0  0  0  0  0  0  0  0  0  0  0  0
   16.4724   -5.7803    0.0000 C   0  0  1  0  0  0  0  0  0  0  0  0
   22.4759   -1.8197    0.0000 O   0  0  0  0  0  0  0  0  0  0  0  0
   22.7240   -3.2270    0.0000 O   0  0  0  0  0  0  0  0  0  0  0  0
   19.7563   -3.0248    0.0000 O   0  0  0  0  0  0  0  0  0  0  0  0
   20.0044   -4.4320    0.0000 O   0  0  0  0  0  0  0  0  0  0  0  0
   16.7546   -5.0050    0.0000 O   0  0  0  0  0  0  0  0  0  0  0  0
   10.0422   -6.1928    0.0000 H   0  0  0  0  0  0  0  0  0  0  0  0
   12.9000   -6.1928    0.0000 H   0  0  0  0  0  0  0  0  0  0  0  0
 12  9  1  0  0  0  0
 13  9  1  0  0  0  0
 14 10  1  0  0  0  0
 15 10  1  0  0  0  0
 16 11  1  0  0  0  0
 18 17  1  0  0  0  0
 20 11  1  0  0  0  0
 21 19  1  0  0  0  0
 22  1  1  0  0  0  0
 22  2  1  0  0  0  0
 22 12  1  0  0  0  0
 23  3  1  6  0  0  0
 23 13  1  0  0  0  0
 23 14  1  0  0  0  0
 24  4  1  6  0  0  0
 24 15  1  0  0  0  0
 24 16  1  0  0  0  0
 25  5  1  0  0  0  0
 26  6  1  0  0  0  0
 26 25  1  0  0  0  0
 27  7  1  0  0  0  0
 28 19  1  0  0  0  0
 28 27  2  0  0  0  0
 29 17  1  0  0  0  0
 30 18  1  0  0  0  0
 31 25  2  0  0  0  0
 31 27  1  0  0  0  0
 32 26  2  0  0  0  0
 32 28  1  0  0  0  0
 33  8  1  6  0  0  0
 33 20  1  1  0  0  0
 33 21  1  0  0  0  0
 34 29  2  0  0  0  0
 35 29  1  0  0  0  0
 36 30  2  0  0  0  0
 37 30  1  0  0  0  0
 37 31  1  0  0  0  0
 38 32  1  0  0  0  0
 38 33  1  0  0  0  0
 23 39  1  1  0  0  0
 24 40  1  1  0  0  0
M  END
> <DATABASE_ID>
DB14001

> <DATABASE_NAME>
drugbank

> <SMILES>
[H][C@@](C)(CCCC(C)C)CCC[C@@]([H])(C)CCC[C@]1(C)CCC2=C(C)C(OC(=O)CCC(O)=O)=C(C)C(C)=C2O1

> <INCHI_IDENTIFIER>
InChI=1S/C33H54O5/c1-22(2)12-9-13-23(3)14-10-15-24(4)16-11-20-33(8)21-19-28-27(7)31(25(5)26(6)32(28)38-33)37-30(36)18-17-29(34)35/h22-24H,9-21H2,1-8H3,(H,34,35)/t23-,24-,33-/m1/s1

> <INCHI_KEY>
IELOKBJPULMYRW-NJQVLOCASA-N

> <FORMULA>
C33H54O5

> <MOLECULAR_WEIGHT>
530.79

> <EXACT_MASS>
530.397124839

> <JCHEM_ACCEPTOR_COUNT>
4

> <JCHEM_ATOM_COUNT>
92

> <JCHEM_AVERAGE_POLARIZABILITY>
65.99399868129242

> <JCHEM_BIOAVAILABILITY>
0

> <JCHEM_DONOR_COUNT>
1

> <JCHEM_FORMAL_CHARGE>
0

> <JCHEM_GHOSE_FILTER>
0

> <JCHEM_IUPAC>
4-oxo-4-{[(2R)-2,5,7,8-tetramethyl-2-[(4R,8R)-4,8,12-trimethyltridecyl]-3,4-dihydro-2H-1-benzopyran-6-yl]oxy}butanoic acid

> <ALOGPS_LOGP>
7.96

> <JCHEM_LOGP>
10.243406303

> <ALOGPS_LOGS>
-7.65

> <JCHEM_MDDR_LIKE_RULE>
0

> <JCHEM_NUMBER_OF_RINGS>
2

> <JCHEM_PHYSIOLOGICAL_CHARGE>
-1

> <JCHEM_PKA_STRONGEST_ACIDIC>
3.995219750428804

> <JCHEM_PKA_STRONGEST_BASIC>
-4.857008797012035

> <JCHEM_POLAR_SURFACE_AREA>
72.83

> <JCHEM_REFRACTIVITY>
155.41889999999998

> <JCHEM_ROTATABLE_BOND_COUNT>
17

> <JCHEM_RULE_OF_FIVE>
0

> <ALOGPS_SOLUBILITY>
1.18e-05 g/l

> <JCHEM_TRADITIONAL_IUPAC>
4-oxo-4-{[(2R)-2,5,7,8-tetramethyl-2-[(4R,8R)-4,8,12-trimethyltridecyl]-3,4-dihydro-1-benzopyran-6-yl]oxy}butanoic acid

> <JCHEM_VEBER_RULE>
0

> <DRUGBANK_ID>
DB14001

> <SECONDARY_ACCESSION_NUMBERS>
DBSALT001494

> <DRUG_GROUPS>
approved; nutraceutical; vet_approved

> <GENERIC_NAME>
alpha-Tocopherol succinate

> <SYNONYMS>
(+)-alpha-Tocopheryl succinate; alpha-Tocopheryl acid succinate; alpha-Tocopheryl succinate; alpha-Vitamin E succinate; d-alpha-Tocopherol acid succinate; Tocopheryl acid succinate,D-alpha; Vitamin E hemisuccinate; Vitamin E succinate

> <PRODUCTS>
Acti-succinate Caplet 400unit; Avon Vitadvance Multi-kids Complete; B.E.T. Complex; Body Rox; C.H.V. Formula; C.R.D.-force; Cavan Heme OB; Chewable Vitamin E 200 I.U.; Chewable Vitamin E 400 I.U.; Children Choice Multivit Chewable Tab; Children Choice Multivitamin W Iron Chew Tab; Children's Chewable Multivitamins With Minerals; Children's Chewable Multivitamins and Minerals; Children's Chewable Tab; Children's Chewable With Iron; Children's Multivitamins; Children's Multivitamins With Iron; Co-q10 and Vitamin E; Corvita; Corvite; Corvite Free; Defense Caplets; Derma-force; Dialyvite 3000; Dialyvite 5000; Dialyvite Supreme D; Dry Form Vitamin E 400iu With Selenium 100mcg; E Plex 1000 Mega Strength; E Plex 200 Regular Strength; E Plex 400 Extra Strength; E Plex 600 Ultra Strength; E.S.T. Complex; Elite OB Prenatal Multivitamin; Enzogenol; Floriva Plus; Folic Acid Plus; For Men; Formula 14 Dietary Supplement; Formula Fe-vitamin and Mineral Tab; Formula Ma-vitamin E & Zinc Tab; Formula O; Formula O.C.; Gynedyn Tab; HemeNatal OB; HemeNatal OB plus DHA; Henkel's Vitamin E and Selenium Cap; Hyper E Tab; Imm Formula Cap; Itabs Plus; L.I.P. Complex; Leritone Junior; M-Vegmax22; Master Key Multi Vitamin Multi Mineral Formula 2; Maximum Once A Day; Mega Balance; Mega-vim 75 With Beta-carotene - Tablets; Men's; Men's 50+; Men's Multi Master Formula; Multi Vitamin Drops with Fluoride; Multi Vitamin Drops with Fluoride and Iron; Multi-Vitamin Drops with Fluoride and Iron; Multi-Vitamin Fluoride Drops; Multi-Vitamin Fluoride and Iron Drops; Multi-Vitamin with Fluoride; Multi-actin; Multivitamin & Minerals (iron Free); Multivitamin & Multimineral; Multra Plex; Multra With Iron; N.E.U. Complex; Ni-C-E-LE Plus; Nutrilite Double X; OB Complete Prenatal; Oncovite; Poly-Vitamin with Fluoride; PreQue 10; Prefera OB plus DHA; PreferaOB; PreferaOB plus DHA; R.E.S. Complex; Revit Multi-vitamins and Minerals; Revit Plus Cap; Right Choice A.M. Multi Formula - Caplet; Selen-E-400 Tab; Selenium Plus; Selenium With E Tab; Selenium-E-400; Somavit Brand Vitamins and Minerals Complex; Strovite One Caplets; Super Multi; Super-cell; Swiss Total One; Tricare Prenatal 2-part Daily Prenatal Vitamin System; Tricare Prenatal Quick Dissolve; Ultimate OB DHA; V & M Vitamin and Mineral Supplement; Vita Day Tab; Vitamin E + 3 (extra Strength); Vitamin E + 3 Extra Strength With Zinc; Vitamin E 400 Iu; Vitamin E 400 Iu With Selenium, Vitamin C & Manganese; Vitamin E Cap 400iu; Vitamin E Dietary Supplement; Vitamine E 400 Ui and Selenium 50; Vp-heme Ob; Vp-heme Ob DHA; Webber Vitamin E Liq 77unit/ml Water Sol; Webber Vitamin E Succ Cap 400unit(dri Caps); Women's Formula

$$$$

  Mrv1718004101812242D          

 34 35  0  0  0  0            999 V2000
   -4.2869   -1.6500    0.0000 C   0  0  0  0  0  0  0  0  0  0  0  0
   -4.2869   -0.8249    0.0000 C   0  0  0  0  0  0  0  0  0  0  0  0
   -2.1435   -0.4124    0.0000 C   0  0  0  0  0  0  0  0  0  0  0  0
   -2.8580   -0.8249    0.0000 C   0  0  0  0  0  0  0  0  0  0  0  0
   -3.5724   -0.4124    0.0000 C   0  0  0  0  0  0  0  0  0  0  0  0
   -5.0014   -0.4124    0.0000 C   0  0  0  0  0  0  0  0  0  0  0  0
   -5.7158   -0.8249    0.0000 O   0  0  0  0  0  0  0  0  0  0  0  0
   -5.0014    0.4124    0.0000 C   0  0  0  0  0  0  0  0  0  0  0  0
   -5.7158    0.8249    0.0000 C   0  0  0  0  0  0  0  0  0  0  0  0
   -4.2869    0.8249    0.0000 C   0  0  0  0  0  0  0  0  0  0  0  0
   -4.2869    1.6500    0.0000 C   0  0  0  0  0  0  0  0  0  0  0  0
   -3.5724    0.4124    0.0000 C   0  0  0  0  0  0  0  0  0  0  0  0
   -2.8580    0.8249    0.0000 O   0  0  0  0  0  0  0  0  0  0  0  0
    6.4303   -0.4124    0.0000 C   0  0  0  0  0  0  0  0  0  0  0  0
    6.4303    0.4124    0.0000 C   0  0  0  0  0  0  0  0  0  0  0  0
    7.1447    0.8249    0.0000 C   0  0  0  0  0  0  0  0  0  0  0  0
    5.7158    0.8249    0.0000 C   0  0  0  0  0  0  0  0  0  0  0  0
    5.0013    0.4124    0.0000 C   0  0  0  0  0  0  0  0  0  0  0  0
    4.2868    0.8249    0.0000 C   0  0  0  0  0  0  0  0  0  0  0  0
    3.5723    0.4124    0.0000 C   0  0  1  0  0  0  0  0  0  0  0  0
    3.5723   -0.4124    0.0000 C   0  0  0  0  0  0  0  0  0  0  0  0
    2.8579    0.8249    0.0000 C   0  0  0  0  0  0  0  0  0  0  0  0
    2.1433    0.4124    0.0000 C   0  0  0  0  0  0  0  0  0  0  0  0
    1.4289    0.8249    0.0000 C   0  0  0  0  0  0  0  0  0  0  0  0
    0.7144    0.4124    0.0000 C   0  0  1  0  0  0  0  0  0  0  0  0
    0.7144   -0.4124    0.0000 C   0  0  0  0  0  0  0  0  0  0  0  0
    0.0000    0.8249    0.0000 C   0  0  0  0  0  0  0  0  0  0  0  0
   -0.7144    0.4124    0.0000 C   0  0  0  0  0  0  0  0  0  0  0  0
   -1.4290    0.8249    0.0000 C   0  0  0  0  0  0  0  0  0  0  0  0
   -2.1435    0.4124    0.0000 C   0  0  2  0  0  0  0  0  0  0  0  0
   -1.4290    0.0000    0.0000 C   0  0  0  0  0  0  0  0  0  0  0  0
   -6.4302   -0.4124    0.0000 C   0  0  0  0  0  0  0  0  0  0  0  0
   -7.1447   -0.8249    0.0000 C   0  0  0  0  0  0  0  0  0  0  0  0
   -6.4302    0.4124    0.0000 O   0  0  0  0  0  0  0  0  0  0  0  0
  2  1  1  0  0  0  0
 30 29  1  6  0  0  0
 30  3  1  0  0  0  0
  3  4  1  0  0  0  0
  5  2  2  0  0  0  0
  4  5  1  0  0  0  0
  2  6  1  0  0  0  0
  6  7  1  0  0  0  0
  8  6  2  0  0  0  0
  8  9  1  0  0  0  0
 10  8  1  0  0  0  0
 10 11  1  0  0  0  0
 12 10  2  0  0  0  0
 12  5  1  0  0  0  0
 30 13  1  0  0  0  0
 12 13  1  0  0  0  0
 14 15  1  0  0  0  0
 15 16  1  0  0  0  0
 15 17  1  0  0  0  0
 17 18  1  0  0  0  0
 18 19  1  0  0  0  0
 19 20  1  0  0  0  0
 20 21  1  1  0  0  0
 20 22  1  0  0  0  0
 22 23  1  0  0  0  0
 23 24  1  0  0  0  0
 24 25  1  0  0  0  0
 25 26  1  1  0  0  0
 25 27  1  0  0  0  0
 27 28  1  0  0  0  0
 28 29  1  0  0  0  0
 30 31  1  1  0  0  0
  7 32  1  0  0  0  0
 32 33  1  0  0  0  0
 32 34  2  0  0  0  0
M  END
> <DATABASE_ID>
DB14002

> <DATABASE_NAME>
drugbank

> <SMILES>
CC(C)CCC[C@@H](C)CCC[C@@H](C)CCC[C@]1(C)CCC2=C(C)C(OC(C)=O)=C(C)C(C)=C2O1

> <INCHI_IDENTIFIER>
InChI=1S/C31H52O3/c1-21(2)13-10-14-22(3)15-11-16-23(4)17-12-19-31(9)20-18-28-26(7)29(33-27(8)32)24(5)25(6)30(28)34-31/h21-23H,10-20H2,1-9H3/t22-,23-,31-/m1/s1

> <INCHI_KEY>
ZAKOWWREFLAJOT-CEFNRUSXSA-N

> <FORMULA>
C31H52O3

> <MOLECULAR_WEIGHT>
472.7428

> <EXACT_MASS>
472.39164553

> <JCHEM_ACCEPTOR_COUNT>
2

> <JCHEM_ATOM_COUNT>
86

> <JCHEM_AVERAGE_POLARIZABILITY>
60.48235944908521

> <JCHEM_BIOAVAILABILITY>
0

> <JCHEM_DONOR_COUNT>
0

> <JCHEM_FORMAL_CHARGE>
0

> <JCHEM_GHOSE_FILTER>
0

> <JCHEM_IUPAC>
(2R)-2,5,7,8-tetramethyl-2-[(4R,8R)-4,8,12-trimethyltridecyl]-3,4-dihydro-2H-1-benzopyran-6-yl acetate

> <ALOGPS_LOGP>
9.19

> <JCHEM_LOGP>
10.418543556000001

> <ALOGPS_LOGS>
-8.21

> <JCHEM_MDDR_LIKE_RULE>
0

> <JCHEM_NUMBER_OF_RINGS>
2

> <JCHEM_PHYSIOLOGICAL_CHARGE>
0

> <JCHEM_PKA_STRONGEST_BASIC>
-4.8567558795249655

> <JCHEM_POLAR_SURFACE_AREA>
35.53

> <JCHEM_REFRACTIVITY>
144.52559999999994

> <JCHEM_ROTATABLE_BOND_COUNT>
14

> <JCHEM_RULE_OF_FIVE>
0

> <ALOGPS_SOLUBILITY>
2.93e-06 g/l

> <JCHEM_TRADITIONAL_IUPAC>
tocopheryl acetate

> <JCHEM_VEBER_RULE>
0

> <DRUGBANK_ID>
DB14002

> <SECONDARY_ACCESSION_NUMBERS>
DBSALT001457

> <DRUG_GROUPS>
approved; nutraceutical; vet_approved

> <GENERIC_NAME>
D-alpha-Tocopherol acetate

> <SYNONYMS>
(+)-alfa-tocopherol acetate; alpha-tocopheryl acetate, D-; D-alpha tocoferil acetate; D-alpha tocopheryl acetate; D-alpha-Tocopheryl acetate; RRR-alpha-tocopheryl acetate; Vitamin E acetate, D-

> <PRODUCTS>
Active OB; Allbee C 800 Tab; Aquasol E Capsules 100 I.U.; Aquasol E Capsules 100unit; C.E.b12 Complex Pwr; Cheon Shim Bo Hwa; Cheon Shim Bo Yun; Childrens Chewab Vitamin W Chel Minerals; Clear Base E 800iu Cap; Coen.q10w.vit.c and E Beta-car.se Cu Zn Mn; Daily Balance Tab; Duet DHA; Duet DHA 400; Duet DHA 400 ec; Duet DHA Balanced; E Vitamin 200 I.U. (natural Source) - Cap; E Vitamin 400 I.U. (natural Source)-cap; Escavite Lq; Folet DHA; Foltabs Prenatal Plus DHA; Formula Cp Cap; Germacil; Gnc Natural Source Vitamin E Capsule 600 Iu; Grand Master Formula Tab; IQQU Advanced Sunscreen SPF 50; Innersource Tab; Iron With Vitamins C and E - Tab; Iron, Vit & Min Supp; Kamu Jay Multi Complex Tab; Lipall Plus Tab; Marnatal F; Molyhen; Moms Choice Rx; Multi Vitamin and Mineral vitamin; NESTABS Prenatal Multi-vitamin/Mineral Supplement; NataChew; Nlihome Dental Care; Nuprimol Cap; Nutri-Tab OB; Nutri-Tab OB plus DHA; Nutrol V Capsule; OB Complete Petite; Only One - Tablet; Paire OB Plus DHA; Premium Prenatal - Tablets; Prenatal Formula Tab; Quflora FE Pediatric Drops; Quflora Gummies; Quflora Pediatric Drops; Super Vita Vim Multivitamins and Minerals; Sweet Sixteen - Tab; Theraplex E Tab 2.5unit; Timed Release Vita-vim Srt; TriStart DHA; Vit E 400unit W Selenium 50mcg; Vita Vim Multivitamins and Minerals Tab; Vita Vim With Beta Carotene-caplet; Vitamin A C E W.niacinam.beta Car.and Min.; Vitamin E 400I.U. Cap; Vitamin E 400I.U.with Selenium 50mcg-tab; Vitamin E Cap 100iu Nf Natural Source; Vitamin E Cap 100unit; Vitamin E Cap 100unit USP; Vitamin E Cap 200iu; Vitamin E Cap 200unit; Vitamin E Cap 200unit USP; Vitamin E Cap 400iu; Vitamin E Cap 400unit; Vitamin E Cap 400unit USP; Vitamin E Cap 800unit; Vitamine E 100 Cap; Vitamine E 800 Cap; Vitamine E Cap 800iu; Vitamine E Cap 800unit USP; Vitrexate; Vitrexyl; Viva Kids - Tab; Webber E Plus 3 Cap; Webber Vitamin E Cap 200unit Original; WestGel DHA

$$$$

  Mrv1718004061814092D          

 17 16  0  0  0  0            999 V2000
    1.2964   -0.2041    0.0000 C   0  0  0  0  0  0  0  0  0  0  0  0
    0.4714   -0.2041    0.0000 N   0  3  0  0  0  0  0  0  0  0  0  0
    0.4714    0.6209    0.0000 C   0  0  0  0  0  0  0  0  0  0  0  0
    0.4714   -1.0291    0.0000 C   0  0  0  0  0  0  0  0  0  0  0  0
   -0.3536   -0.2041    0.0000 C   0  0  0  0  0  0  0  0  0  0  0  0
   -0.7661    0.5103    0.0000 C   0  0  0  0  0  0  0  0  0  0  0  0
   -1.5911    0.5103    0.0000 O   0  0  0  0  0  0  0  0  0  0  0  0
    5.3256   -1.0725    0.0000 C   0  0  0  0  0  0  0  0  0  0  0  0
    4.6111   -1.4850    0.0000 C   0  0  0  0  0  0  0  0  0  0  0  0
    3.8966   -1.0725    0.0000 C   0  0  0  0  0  0  0  0  0  0  0  0
    3.8966   -0.2475    0.0000 C   0  0  0  0  0  0  0  0  0  0  0  0
    4.6111    0.1650    0.0000 C   0  0  0  0  0  0  0  0  0  0  0  0
    5.3256   -0.2475    0.0000 C   0  0  0  0  0  0  0  0  0  0  0  0
    4.6111    0.9900    0.0000 C   0  0  0  0  0  0  0  0  0  0  0  0
    3.8966    1.4025    0.0000 O   0  0  0  0  0  0  0  0  0  0  0  0
    5.3256    1.4025    0.0000 O   0  5  0  0  0  0  0  0  0  0  0  0
    3.1821    0.1650    0.0000 O   0  0  0  0  0  0  0  0  0  0  0  0
  1  2  1  0  0  0  0
  2  3  1  0  0  0  0
  2  4  1  0  0  0  0
  2  5  1  0  0  0  0
  5  6  1  0  0  0  0
  6  7  1  0  0  0  0
  8  9  2  0  0  0  0
  9 10  1  0  0  0  0
 10 11  2  0  0  0  0
 11 12  1  0  0  0  0
 12 13  2  0  0  0  0
  8 13  1  0  0  0  0
 12 14  1  0  0  0  0
 14 15  2  0  0  0  0
 14 16  1  0  0  0  0
 11 17  1  0  0  0  0
M  CHG  2   2   1  16  -1
M  END
> <DATABASE_ID>
DB14006

> <DATABASE_NAME>
drugbank

> <SMILES>
C[N+](C)(C)CCO.OC1=CC=CC=C1C([O-])=O

> <INCHI_IDENTIFIER>
InChI=1S/C7H6O3.C5H14NO/c8-6-4-2-1-3-5(6)7(9)10;1-6(2,3)4-5-7/h1-4,8H,(H,9,10);7H,4-5H2,1-3H3/q;+1/p-1

> <INCHI_KEY>
UDKCHVLMFQVBAA-UHFFFAOYSA-M

> <FORMULA>
C12H19NO4

> <MOLECULAR_WEIGHT>
241.287

> <EXACT_MASS>
241.131408096

> <JCHEM_ACCEPTOR_COUNT>
3

> <JCHEM_ATOM_COUNT>
36

> <JCHEM_AVERAGE_POLARIZABILITY>
12.375902008425783

> <JCHEM_BIOAVAILABILITY>
1

> <JCHEM_DONOR_COUNT>
1

> <JCHEM_FORMAL_CHARGE>
0

> <JCHEM_GHOSE_FILTER>
1

> <JCHEM_IUPAC>
(2-hydroxyethyl)trimethylazanium 2-hydroxybenzoate

> <ALOGPS_LOGP>
-0.50

> <JCHEM_LOGP>
1.977263402333333

> <ALOGPS_LOGS>
-2.78

> <JCHEM_MDDR_LIKE_RULE>
0

> <JCHEM_NUMBER_OF_RINGS>
1

> <JCHEM_PHYSIOLOGICAL_CHARGE>
-1

> <JCHEM_PKA>
13.228682517040586

> <JCHEM_PKA_STRONGEST_ACIDIC>
2.7897391795725692

> <JCHEM_PKA_STRONGEST_BASIC>
-6.285929432184692

> <JCHEM_POLAR_SURFACE_AREA>
60.36

> <JCHEM_REFRACTIVITY>
46.132200000000005

> <JCHEM_ROTATABLE_BOND_COUNT>
3

> <JCHEM_RULE_OF_FIVE>
1

> <ALOGPS_SOLUBILITY>
3.96e-01 g/l

> <JCHEM_TRADITIONAL_IUPAC>
choline salicylate [usan:inn:ban:jan]

> <JCHEM_VEBER_RULE>
0

> <DRUGBANK_ID>
DB14006

> <SECONDARY_ACCESSION_NUMBERS>
DBSALT001576

> <DRUG_GROUPS>
approved; nutraceutical

> <GENERIC_NAME>
Choline salicylate

> <SYNONYMS>
Choline salicylate

> <PRODUCTS>
DayClear COUGH COLD AND FLU; DayClear SINUS PAIN AND PRESSURE; First Aid Shot Therapy Hangover Relief; First Aid Shot Therapy Pain Relief; First Aid Shot Therapy Pain relief; Kroger Cough Cold and Flu; Kroger NiteTime Cold and Flu; Kroger Sinus Pain and Pressure; Niteclear Cold and Flu Relief; Teejel Gel; Texaclear Congestion and Pain Sinus Relief; Texaclear Daytime Cough Cold/flu; Texaclear Night Time Cough Cold/flu; Texaclear PM Pain Reliever Sleep Aid; Texaclear Pain Reliever; TopCare Nighttime Cold and Flu Simple Relief; Topcare Cough Cold and Flu Simple Relief; Topcare Pain Reliever Simple Relief; Trilisate Tab; Vanapain; Vanapain PM

$$$$

  Mrv1718005221813592D          

 21 20  0  0  0  0            999 V2000
   -3.9296    0.0000    0.0000 C   0  0  0  0  0  0  0  0  0  0  0  0
   -3.2151    0.4125    0.0000 C   0  0  0  0  0  0  0  0  0  0  0  0
   -2.5006    0.0000    0.0000 C   0  0  0  0  0  0  0  0  0  0  0  0
   -1.7861    0.4125    0.0000 C   0  0  0  0  0  0  0  0  0  0  0  0
   -1.0717    0.0000    0.0000 C   0  0  0  0  0  0  0  0  0  0  0  0
   -0.3573    0.4125    0.0000 C   0  0  0  0  0  0  0  0  0  0  0  0
    0.3572    0.0000    0.0000 C   0  0  0  0  0  0  0  0  0  0  0  0
    1.0716    0.4125    0.0000 C   0  0  0  0  0  0  0  0  0  0  0  0
    1.7862    0.0000    0.0000 N   0  0  0  0  0  0  0  0  0  0  0  0
    2.5005    0.4125    0.0000 C   0  0  0  0  0  0  0  0  0  0  0  0
    3.2150    0.0000    0.0000 C   0  0  0  0  0  0  0  0  0  0  0  0
    1.0716    1.2374    0.0000 O   0  0  0  0  0  0  0  0  0  0  0  0
    3.9296    0.4125    0.0000 O   0  0  0  0  0  0  0  0  0  0  0  0
   -3.9296   -0.8250    0.0000 C   0  0  0  0  0  0  0  0  0  0  0  0
   -3.2151   -1.2375    0.0000 C   0  0  0  0  0  0  0  0  0  0  0  0
   -2.5006   -0.8250    0.0000 C   0  0  0  0  0  0  0  0  0  0  0  0
   -1.7861   -1.2375    0.0000 C   0  0  0  0  0  0  0  0  0  0  0  0
   -1.0717   -0.8250    0.0000 C   0  0  0  0  0  0  0  0  0  0  0  0
   -0.3573   -1.2375    0.0000 C   0  0  0  0  0  0  0  0  0  0  0  0
    0.3572   -0.8250    0.0000 C   0  0  0  0  0  0  0  0  0  0  0  0
    1.0716   -1.2375    0.0000 C   0  0  0  0  0  0  0  0  0  0  0  0
  1  2  1  0  0  0  0
  2  3  1  0  0  0  0
  3  4  1  0  0  0  0
  4  5  1  0  0  0  0
  5  6  1  0  0  0  0
  6  7  1  0  0  0  0
  7  8  1  0  0  0  0
  8  9  1  0  0  0  0
  9 10  1  0  0  0  0
 10 11  1  0  0  0  0
  8 12  2  0  0  0  0
 11 13  1  0  0  0  0
  1 14  1  0  0  0  0
 14 15  1  0  0  0  0
 15 16  1  0  0  0  0
 16 17  1  0  0  0  0
 17 18  1  0  0  0  0
 18 19  1  0  0  0  0
 19 20  1  0  0  0  0
 20 21  1  0  0  0  0
M  END
> <DATABASE_ID>
DB14043

> <DATABASE_NAME>
drugbank

> <SMILES>
CCCCCCCCCCCCCCCC(=O)NCCO

> <INCHI_IDENTIFIER>
InChI=1S/C18H37NO2/c1-2-3-4-5-6-7-8-9-10-11-12-13-14-15-18(21)19-16-17-20/h20H,2-17H2,1H3,(H,19,21)

> <INCHI_KEY>
HXYVTAGFYLMHSO-UHFFFAOYSA-N

> <FORMULA>
C18H37NO2

> <MOLECULAR_WEIGHT>
299.4919

> <EXACT_MASS>
299.282429433

> <JCHEM_ACCEPTOR_COUNT>
2

> <JCHEM_ATOM_COUNT>
58

> <JCHEM_AVERAGE_POLARIZABILITY>
40.050620802529124

> <JCHEM_BIOAVAILABILITY>
1

> <JCHEM_DONOR_COUNT>
2

> <JCHEM_FORMAL_CHARGE>
0

> <JCHEM_GHOSE_FILTER>
1

> <JCHEM_IUPAC>
N-(2-hydroxyethyl)hexadecanamide

> <ALOGPS_LOGP>
5.74

> <JCHEM_LOGP>
4.983214217666667

> <ALOGPS_LOGS>
-5.34

> <JCHEM_MDDR_LIKE_RULE>
0

> <JCHEM_NUMBER_OF_RINGS>
0

> <JCHEM_PHYSIOLOGICAL_CHARGE>
0

> <JCHEM_PKA>
16.4516777131807

> <JCHEM_PKA_STRONGEST_ACIDIC>
15.46316276250879

> <JCHEM_PKA_STRONGEST_BASIC>
-1.308612918628579

> <JCHEM_POLAR_SURFACE_AREA>
49.33

> <JCHEM_REFRACTIVITY>
90.09479999999998

> <JCHEM_ROTATABLE_BOND_COUNT>
16

> <JCHEM_RULE_OF_FIVE>
1

> <ALOGPS_SOLUBILITY>
1.36e-03 g/l

> <JCHEM_TRADITIONAL_IUPAC>
palmitoylethanolamide

> <JCHEM_VEBER_RULE>
0

> <DRUGBANK_ID>
DB14043

> <DRUG_GROUPS>
experimental; nutraceutical

> <GENERIC_NAME>
Palmidrol

> <SYNONYMS>
Hydroxyethylpalmitamide; Monoethanolamine palmitic acid amide; N-(2-Hydroxyethyl)palmitamide; N-hexadecanoylethanolamine; N-palmitoylethanolamine; Palmidrol; palmidrolum; Palmitamide MEA; Palmitic acid monoethanolamide; Palmitinsaeure-beta-hydroxyethylamid; Palmitoyl ethanolamide; Palmitoyl-EA; Palmitoylethanolamide

> <INTERNATIONAL_BRANDS>
Palmdrol prodes

$$$$

  Mrv1718007061818022D          

 14 13  0  0  0  0            999 V2000
   -1.5738   -1.3852    0.0000 Na  0  3  0  0  0  0  0  0  0  0  0  0
    0.6794    0.6326    0.0000 O   0  0  0  0  0  0  0  0  0  0  0  0
   -0.2180   -1.3045    0.0000 O   0  5  0  0  0  0  0  0  0  0  0  0
    1.5768   -1.3045    0.0000 O   0  0  0  0  0  0  0  0  0  0  0  0
    1.3468    0.1476    0.0000 C   0  0  0  0  0  0  0  0  0  0  0  0
    2.1316    0.4025    0.0000 O   0  0  0  0  0  0  0  0  0  0  0  0
    1.0919   -0.6369    0.0000 C   0  0  0  0  0  0  0  0  0  0  0  0
    0.2668   -0.6369    0.0000 C   0  0  0  0  0  0  0  0  0  0  0  0
   -2.1316    0.5601    0.0000 O   0  0  0  0  0  0  0  0  0  0  0  0
   -1.4171    0.1476    0.0000 C   0  0  0  0  0  0  0  0  0  0  0  0
   -0.7025    0.5601    0.0000 C   0  0  2  0  0  0  0  0  0  0  0  0
   -0.7025    1.3852    0.0000 O   0  0  0  0  0  0  0  0  0  0  0  0
    0.0120    0.1476    0.0000 C   0  0  1  0  0  0  0  0  0  0  0  0
   -0.7025   -0.2648    0.0000 H   0  0  0  0  0  0  0  0  0  0  0  0
  2  5  1  0  0  0  0
 13  2  1  0  0  0  0
  8  3  1  0  0  0  0
  7  4  1  0  0  0  0
  5  6  2  0  0  0  0
  5  7  1  0  0  0  0
  7  8  2  0  0  0  0
 13  8  1  0  0  0  0
  9 10  1  0  0  0  0
 10 11  1  0  0  0  0
 11 13  1  0  0  0  0
 11 12  1  6  0  0  0
 13 14  1  6  0  0  0
M  CHG  2   1   1   3  -1
M  END
> <DATABASE_ID>
DB14482

> <DATABASE_NAME>
drugbank

> <SMILES>
[Na+].[H][C@@]1(OC(=O)C(O)=C1[O-])[C@@H](O)CO

> <INCHI_IDENTIFIER>
InChI=1S/C6H8O6.Na/c7-1-2(8)5-3(9)4(10)6(11)12-5;/h2,5,7-10H,1H2;/q;+1/p-1/t2-,5+;/m0./s1

> <INCHI_KEY>
PPASLZSBLFJQEF-RXSVEWSESA-M

> <FORMULA>
C6H7NaO6

> <MOLECULAR_WEIGHT>
198.106

> <EXACT_MASS>
198.01403223

> <JCHEM_ACCEPTOR_COUNT>
5

> <JCHEM_ATOM_COUNT>
20

> <JCHEM_AVERAGE_POLARIZABILITY>
14.509654812589623

> <JCHEM_BIOAVAILABILITY>
1

> <JCHEM_DONOR_COUNT>
3

> <JCHEM_FORMAL_CHARGE>
0

> <JCHEM_GHOSE_FILTER>
0

> <JCHEM_IUPAC>
sodium (2R)-2-[(1S)-1,2-dihydroxyethyl]-4-hydroxy-5-oxo-2,5-dihydrofuran-3-olate

> <ALOGPS_LOGP>
-1.45

> <JCHEM_LOGP>
-1.9135588756666668

> <ALOGPS_LOGS>
0.50

> <JCHEM_MDDR_LIKE_RULE>
0

> <JCHEM_NUMBER_OF_RINGS>
1

> <JCHEM_PHYSIOLOGICAL_CHARGE>
-1

> <JCHEM_PKA>
11.194691755527732

> <JCHEM_PKA_STRONGEST_ACIDIC>
4.359917400580226

> <JCHEM_PKA_STRONGEST_BASIC>
-2.979728932431362

> <JCHEM_POLAR_SURFACE_AREA>
110.05000000000001

> <JCHEM_REFRACTIVITY>
47.5824

> <JCHEM_ROTATABLE_BOND_COUNT>
2

> <JCHEM_RULE_OF_FIVE>
1

> <ALOGPS_SOLUBILITY>
6.25e+02 g/l

> <JCHEM_TRADITIONAL_IUPAC>
sodium ascorbate

> <JCHEM_VEBER_RULE>
0

> <DRUGBANK_ID>
DB14482

> <SECONDARY_ACCESSION_NUMBERS>
DBSALT001764

> <DRUG_GROUPS>
approved; nutraceutical

> <GENERIC_NAME>
Sodium ascorbate

> <SYNONYMS>
Ascorbato sódico; Ascorbic acid sodium salt; L-Ascorbic acid sodium salt; L-Ascorbic acid, monosodium salt; Monosodium L-ascorbate; Sodium ascorbate; sodium L-ascorbate; Vitamin C sodium; Vitamin C, sodium salt

> <PRODUCTS>
Animal Shaped Chew Vit C Tab 250mg; Appedrine; Ascorbex 500 Tab; Bugs Bunny Chew Multi Vit Plus Iron; Bugs Bunny and Friends Multiple Vitamins; C Wafer 500 Chewable 500mg; Centratex; Chewable Multiple Vitamins for Children; Chewable Multivitamins; Chewable Multivitamins Plus Iron; Chewable Vit C 100mg; Chewable Vitamin C 100mg - Tab; Chewable Vitamin C 250mg; Chewable Vitamin C 500mg; Chewable Vitamin C 500mg Tab; Chewable Vitamin C Tab 1000mg; Children's Chewable Multiple Vit.plus Iron; Children's Chewable Multiple Vitamins (chewable Tablets); Children's Chewable Multiple Vitamins - Tab; Children's Chewable Multiple Vitamins With Extra Vitamin C (chewable Tablets); Children's Chewable Multiple Vitamins With Iron Tablets (chewable Tablets); Childrens Chewable Multiple Vitamins Tab; Complete Multivitamins and Minerals for Children; CompleteNate Chewable; Dexatrim Tablets; Flinstones Multiple Plus Iron; Flintstones Multiple Vitamins; Flintstones Multiple Vitamins Plus Iron; Flintstones Multiple Vitamins Tab; Flintstones W Extra C Tab; For Kids Only Chewable Multivit. Plus Iron; For Kids Only Chewable Multivitamins - Tab; Garfield Chewable Multivits Plus Iron Tab; Hemocyte Plus; Irospan 24/6; Mega 13 Multivitamin Formula; Mega-C-sodium Inj 250mg/ml; MoviPrep; Moviprep; Multi Vitamin with Fluoride; Multi-fruits Chewable Vitamin C 500mg Tablet; Multivitamin with Fluoride; Multivitamine; Multivitamines Plus Fer Pour Enfants (chewable Tablets); Multivitamines Pour Enfants (chewable Tablets); Multivitamins for Children; NESTABS DHA Prenatal Multi-vitamin/Mineral Supplement with DHA/EPA; NESTABS Prenatal Multi-vitamin/Mineral Supplement; Natural Fruit Chew C 250mg Tangy Orange Flavour; NeutroSpec; Nutri-Tab OB; Nutri-Tab OB plus DHA; PEG-3350, Electrolytes, and Ascorbate; PNV Prenatal Vitamin; Paramettes Chewable Multivits With Iron Tab; Peg-3350, Sodium Sulfate, Sodium Chloride, Potassium Chloride, Sodium Ascorbate and Ascorbic Acid; Permathene-12 - Caplet; Plenvu; Pnv-VP-U; Poly-VI-sol Drops; Pre-Tabs DHA Prenatal Multi-vitamin/Mineral Supplement with DHA/EPA; Prenavite Forte; Prenavite Forte Tablets; Prenavite Tablets; PureFe OB Plus; PureFe Plus; PureVit DualFe Plus; S.H. Drink Mix; Se-Tan DHA; Se-Tan PLUS; Selenium Plus; Sodium Ascor Crystal 888.8mg/gm USP; Tandem OB; Tandem Plus; Tgi Tab 50mg; Tri-VI-sol Drops; V-Natal; Virt-Bal DHA Plus; Virt-Pn DHA; Vit C Chew Tab 250mg; Vit C Chew Tab 500mg; Vit C Tab 500mg; Vitamin C; Vitamin C 250mg Chewable; Vitamin C 500 Tab Chewable; Vitamin C 60mg; Vitamin C Chew Sug Fr 500mg; Vitamin C Tab 1000mg; Vitamin C Tab 1000mg Chewable; Vitamin C Tab 100mg; Vitamin C Tab 100mg Chewable; Vitamin C Tab 100mg Chewable Orange; Vitamin C Tab 100mg Orange Flavoured Chewable; Vitamin C Tab 250mg Chewable; Vitamin C Tab 250mg Chewable Orange; Vitamin C Tab 250mg Orange Flavoured Chewable; Vitamin C Tab 500mg; Vitamin C Tab 500mg Chewable; Vitamin C Tab 500mg Chewable Orange; Vitamin C Tab 500mg Orange Flavor; Vitamin C Tab 500mg Orange Flavoured Chewable; Vitamin C Tablets Chewable 250mg; Vitamin C Tablets Chewable 500mg; Vitamine C 100mg 5 Fruits-tab; Vitamine C 100mg Tab Masticable; Vitamine C 250mg Tab Masticable; Vitamine C 500mg 5-fruits - Tab; Vitamine C 500mg 5-fruits Tab; Vitamine C Croquable Tab 500mg; Vitamine C Tab 100mg; Vitamine C Tab 250mg; Vitamines Et Mineraux Enfants 970; Zinc Lozenge With Vitamin C; Zoo Chews; Zoo Chews Plus Iron

$$$$

  Mrv1718007061818202D          

 25 24  0  0  0  0            999 V2000
    0.7134   -0.2518    0.0000 Ca  0  2  0  0  0  0  0  0  0  0  0  0
    0.7833    2.9237    0.0000 O   0  0  0  0  0  0  0  0  0  0  0  0
    0.5945   -1.5598    0.0000 O   0  0  0  0  0  0  0  0  0  0  0  0
   -0.1049    0.9863    0.0000 O   0  5  0  0  0  0  0  0  0  0  0  0
   -0.2937   -3.4973    0.0000 O   0  5  0  0  0  0  0  0  0  0  0  0
    1.6716    0.9863    0.0000 O   0  0  0  0  0  0  0  0  0  0  0  0
    1.4828   -3.4973    0.0000 O   0  0  0  0  0  0  0  0  0  0  0  0
    2.2452    2.6928    0.0000 O   0  0  0  0  0  0  0  0  0  0  0  0
    2.0564   -1.7836    0.0000 O   0  0  0  0  0  0  0  0  0  0  0  0
   -0.8394    3.4973    0.0000 O   0  0  0  0  0  0  0  0  0  0  0  0
   -1.0282   -0.9863    0.0000 O   0  0  0  0  0  0  0  0  0  0  0  0
   -2.0564    2.3991    0.0000 O   0  0  0  0  0  0  0  0  0  0  0  0
   -2.2452   -2.0844    0.0000 O   0  0  0  0  0  0  0  0  0  0  0  0
    0.1258    2.4270    0.0000 C   0  0  1  0  0  0  0  0  0  0  0  0
   -0.0559   -2.0494    0.0000 C   0  0  1  0  0  0  0  0  0  0  0  0
    0.3636    1.6437    0.0000 C   0  0  0  0  0  0  0  0  0  0  0  0
    0.1818   -2.8327    0.0000 C   0  0  0  0  0  0  0  0  0  0  0  0
    1.1890    1.6437    0.0000 C   0  0  0  0  0  0  0  0  0  0  0  0
    1.0002   -2.8327    0.0000 C   0  0  0  0  0  0  0  0  0  0  0  0
    1.4478    2.4270    0.0000 C   0  0  0  0  0  0  0  0  0  0  0  0
    1.2590   -2.0494    0.0000 C   0  0  0  0  0  0  0  0  0  0  0  0
   -0.6715    2.6928    0.0000 C   0  0  2  0  0  0  0  0  0  0  0  0
   -0.8603   -1.7836    0.0000 C   0  0  2  0  0  0  0  0  0  0  0  0
   -1.2870    2.1403    0.0000 C   0  0  0  0  0  0  0  0  0  0  0  0
   -1.4758   -2.3432    0.0000 C   0  0  0  0  0  0  0  0  0  0  0  0
 14  2  1  1  0  0  0
  2 20  1  0  0  0  0
 15  3  1  1  0  0  0
  3 21  1  0  0  0  0
  4 16  1  0  0  0  0
  5 17  1  0  0  0  0
  6 18  1  0  0  0  0
  7 19  1  0  0  0  0
  8 20  2  0  0  0  0
  9 21  2  0  0  0  0
 22 10  1  6  0  0  0
 23 11  1  6  0  0  0
 12 24  1  0  0  0  0
 13 25  1  0  0  0  0
 14 16  1  0  0  0  0
 14 22  1  0  0  0  0
 15 17  1  0  0  0  0
 15 23  1  0  0  0  0
 16 18  2  0  0  0  0
 17 19  2  0  0  0  0
 18 20  1  0  0  0  0
 19 21  1  0  0  0  0
 22 24  1  0  0  0  0
 23 25  1  0  0  0  0
M  CHG  3   1   2   4  -1   5  -1
M  END
> <DATABASE_ID>
DB14483

> <DATABASE_NAME>
drugbank

> <SMILES>
[Ca++].OC[C@H](O)[C@H]1OC(=O)C(O)=C1[O-].OC[C@H](O)[C@H]1OC(=O)C(O)=C1[O-]

> <INCHI_IDENTIFIER>
InChI=1S/2C6H8O6.Ca/c2*7-1-2(8)5-3(9)4(10)6(11)12-5;/h2*2,5,7-10H,1H2;/q;;+2/p-2/t2*2-,5+;/m00./s1

> <INCHI_KEY>
BLORRZQTHNGFTI-ZZMNMWMASA-L

> <FORMULA>
C12H14CaO12

> <MOLECULAR_WEIGHT>
390.31

> <EXACT_MASS>
390.0111168

> <JCHEM_ACCEPTOR_COUNT>
5

> <JCHEM_ATOM_COUNT>
39

> <JCHEM_AVERAGE_POLARIZABILITY>
14.48445869745651

> <JCHEM_BIOAVAILABILITY>
1

> <JCHEM_DONOR_COUNT>
3

> <JCHEM_FORMAL_CHARGE>
0

> <JCHEM_GHOSE_FILTER>
0

> <JCHEM_IUPAC>
calcium bis((2R)-2-[(1S)-1,2-dihydroxyethyl]-4-hydroxy-5-oxo-2,5-dihydrofuran-3-olate)

> <ALOGPS_LOGP>
-1.65

> <JCHEM_LOGP>
-1.9135588756666668

> <ALOGPS_LOGS>
-1.39

> <JCHEM_MDDR_LIKE_RULE>
0

> <JCHEM_NUMBER_OF_RINGS>
2

> <JCHEM_PHYSIOLOGICAL_CHARGE>
-1

> <JCHEM_PKA>
11.194691755527732

> <JCHEM_PKA_STRONGEST_ACIDIC>
4.359917400580226

> <JCHEM_PKA_STRONGEST_BASIC>
-2.979728932431362

> <JCHEM_POLAR_SURFACE_AREA>
110.05000000000001

> <JCHEM_REFRACTIVITY>
47.58240000000001

> <JCHEM_ROTATABLE_BOND_COUNT>
4

> <JCHEM_RULE_OF_FIVE>
1

> <ALOGPS_SOLUBILITY>
1.60e+01 g/l

> <JCHEM_TRADITIONAL_IUPAC>
calcium bis(vitamin-C)

> <JCHEM_VEBER_RULE>
0

> <DRUGBANK_ID>
DB14483

> <SECONDARY_ACCESSION_NUMBERS>
DBSALT002425

> <DRUG_GROUPS>
approved; nutraceutical

> <GENERIC_NAME>
Calcium ascorbate

> <SYNONYMS>
Ascorbic acid calcium salt; Calcium ascorbate; Calcium ascorbate anhydrous; Calcium diascorbate; L-ascorbic acid, calcium salt (2:1)

> <PRODUCTS>
A/o-26 - Caplet; Aces Tab; Acti-MN + B1 + C Caplet; Acti-megascorb Crystals Pwr; Adrien Gagnon Formule A-C-E + Selenium; Am Caps; Ascorbate C-500; Astral C Tab; B.E.T. Complex; B.G. Plus Formula; Body Rox; Buffered Vitamin C 1000mg; C-1000 Plus Zinc & Potassium; C-crystals With Calcium; Calcium Ascorbate 1000 Mg - Tablet; Calcium Ascorbate 1000mg; Calcium Ascorbate Cap 850mg; Calcium Ascorbate Crystals 1250mg/0.25tsp; Calcium Ascorbate Crystals Vitamin C 1gm/ml; Calcium Ascorbate Ctr Srt 450mg; Calcium Ascorbate Fcc; Calcium Ascorbate Powder; Calcium Ascorbate Pwr; Calcium Ascorbate Pwr 1.3gm/1.25ml; Calcium Ascorbate Tab 500mg; Calcium Ascorbate Tab 550mg; Cavan One; Chela Iron Plus C,b Complex; Chela-manganese 50 Plus; Chewable Vitamin C Tab 250mg; Corvite 150; Corvite FE; Defense Caplets; Dual Mix; E.S.T. Complex; Energy 80 Prolonged Release Tab; Envive; Ester - C; Ester C; Ester C 1000mg; Ester C 500 Tab; Ester C Calcium Ascorbate Cap; Ester C Capsule; Ester C Powder; Ester C Tab Chewable; Ester C Vitamin C and Calcium Pws; Ester-C; Ester-C (1000 Mg); Ester-C 500; Ester-C 500 mg; Ester-C 500mg; Ester-C 600 mg; Ester-C 787mg; Ester-C Calcium Ascor Tab; Ester-C Calcium Ascorbate Capsules; Ester-C Calcium Ascorbate Tab; Ester-C Calcium Ascorbate Tablets; Ester-C Powder; Ester-C Vitamin C With Calcium; Ester-C With Non-medicinal Bioflavonoids, Quercetin, and Grape Seed Extract; Extra C 500; Fem Time Tab; Ferrex 150 Forte Plus; Folcaps Care One; Folcaps Omega-3; Folic Acid Plus; For-2; Formula F L W; Formula Hh; Formula Osg; G.A.S. Complex; Hi-potent-C - Cap; Iron Aspartate Glycinate and Polysaccharide Complex, Ascorbic Calcium, Vitamin B12, Folic Acid, Calcium Threonate and Succinic Acid; Iron Aspartate, Glycinate, Ascorbic Calcium, Vitamin B12, Calcium Threonate and Succinic Acid; Iron Fumarate and Aspartate, Glycinate, Ascorbic Calcium, Vitamin B12, Folic Acid, Calcium Threonate and Succinic Acid; L.I.P. Complex; Leritone Junior; Longevit-E - Capsule; Maintain Multiple Vitamin & Minerals; Maxine Vitamin and Mineral Supplement; Mega Capsules; Men's Multi Master Formula; Multi Pro; N.E.U. Complex; N.U.T. Complex; Nestabs ONE; Neutral C + Coenzyme Q10 - Cap; Neutral C + Coenzyme Q10 Plus Vitamins & Minerals; Neutral C With Echinacea & Lemon Bioflavonoids - Cap; Now Ester-C 1000; Now Ester-C Caps; Now Ester-C Complex; Now Ester-C Powder; OB Complete 400; OB Complete DHA; OB Complete Petite; Opti-manganese + B1 + C Caplet; Osteo Formula; P.R.O. Complex; PM Caps; Prenatal Vi-min; PrimaCare; Procosa II; R.E.S. Complex; Release; Se-Care Chewable; Se-Care Conceive; Se-Natal 19 Chewable; Se-Vate 21/7; Softgel Vit.c 200mg From Ester-C Br.ca Asc.; Soin Solaire Complete SPF30; Super C Crystals W Calcium; Supplements De Vitamines Et Mineraux; Taron Forte; UltimateCare ONE NF; Usana Procosa Tablets; Vc II; Vitamin A C E W.niacinam.beta Car.and Min.; Vitamin C 1000mg From Ester-C Brand Ca Asc.; Vitamin C Calcium Pwr; Vitamin C Tab 500mg; Vitamin C and Calcium Tab; Vitamune; Vyo Cylate - Pwr; Vyqua; Women's Formula; Zinc With Vitamin C Lozenges; Zymain Tab

> <SALTS>
Calcium ascorbate dihydrate

$$$$

  Mrv1718007061818262D          

 27 26  0  0  0  0            999 V2000
    0.3712   -0.2925    0.0000 Mg  0  2  0  0  0  0  0  0  0  0  0  0
   -2.2535   -1.1323    0.0000 O   0  0  0  0  0  0  0  0  0  0  0  0
    3.1009    0.0000    0.0000 O   0  0  0  0  0  0  0  0  0  0  0  0
   -0.4162   -0.0374    0.0000 O   0  5  0  0  0  0  0  0  0  0  0  0
    0.9787    0.2624    0.0000 O   0  5  0  0  0  0  0  0  0  0  0  0
   -1.6910    1.0049    0.0000 O   0  0  0  0  0  0  0  0  0  0  0  0
    1.7210    1.7323    0.0000 O   0  0  0  0  0  0  0  0  0  0  0  0
    3.1534    2.5572    0.0000 O   0  0  0  0  0  0  0  0  0  0  0  0
   -3.3334    1.1773    0.0000 O   0  0  0  0  0  0  0  0  0  0  0  0
   -0.2287   -1.8298    0.0000 O   0  0  0  0  0  0  0  0  0  0  0  0
    1.5336   -1.4473    0.0000 O   0  0  0  0  0  0  0  0  0  0  0  0
   -1.8710   -2.5572    0.0000 O   0  0  0  0  0  0  0  0  0  0  0  0
    3.3334   -1.4473    0.0000 O   0  0  0  0  0  0  0  0  0  0  0  0
   -1.8410   -0.4199    0.0000 C   0  0  2  0  0  0  0  0  0  0  0  0
    2.4335    0.4874    0.0000 C   0  0  2  0  0  0  0  0  0  0  0  0
   -2.1785    0.3375    0.0000 C   0  0  2  0  0  0  0  0  0  0  0  0
    2.4335    1.3123    0.0000 C   0  0  2  0  0  0  0  0  0  0  0  0
   -1.0311   -0.5924    0.0000 C   0  0  0  0  0  0  0  0  0  0  0  0
    1.7660    0.0000    0.0000 C   0  0  0  0  0  0  0  0  0  0  0  0
    3.1534    1.7323    0.0000 C   0  0  0  0  0  0  0  0  0  0  0  0
   -2.9960    0.4199    0.0000 C   0  0  0  0  0  0  0  0  0  0  0  0
   -0.9486   -1.4098    0.0000 C   0  0  0  0  0  0  0  0  0  0  0  0
    2.0210   -0.7799    0.0000 C   0  0  0  0  0  0  0  0  0  0  0  0
   -1.6986   -1.7473    0.0000 C   0  0  0  0  0  0  0  0  0  0  0  0
    2.8460   -0.7799    0.0000 C   0  0  0  0  0  0  0  0  0  0  0  0
   -2.5385   -0.3825    0.0000 H   0  0  0  0  0  0  0  0  0  0  0  0
    3.0634    0.8098    0.0000 H   0  0  0  0  0  0  0  0  0  0  0  0
  2 14  1  0  0  0  0
  2 24  1  0  0  0  0
  3 15  1  0  0  0  0
  3 25  1  0  0  0  0
  4 18  1  0  0  0  0
  5 19  1  0  0  0  0
 16  6  1  6  0  0  0
 17  7  1  1  0  0  0
  8 20  1  0  0  0  0
  9 21  1  0  0  0  0
 10 22  1  0  0  0  0
 11 23  1  0  0  0  0
 12 24  2  0  0  0  0
 13 25  2  0  0  0  0
 14 16  1  0  0  0  0
 14 18  1  0  0  0  0
 14 26  1  1  0  0  0
 15 17  1  0  0  0  0
 15 19  1  0  0  0  0
 15 27  1  6  0  0  0
 16 21  1  0  0  0  0
 17 20  1  0  0  0  0
 18 22  2  0  0  0  0
 19 23  2  0  0  0  0
 22 24  1  0  0  0  0
 23 25  1  0  0  0  0
M  CHG  3   1   2   4  -1   5  -1
M  END
> <DATABASE_ID>
DB14484

> <DATABASE_NAME>
drugbank

> <SMILES>
[Mg++].[H][C@@]1(OC(=O)C(O)=C1[O-])[C@@H](O)CO.[H][C@@]1(OC(=O)C(O)=C1[O-])[C@@H](O)CO

> <INCHI_IDENTIFIER>
InChI=1S/2C6H8O6.Mg/c2*7-1-2(8)5-3(9)4(10)6(11)12-5;/h2*2,5,7-10H,1H2;/q;;+2/p-2/t2*2-,5+;/m00./s1

> <INCHI_KEY>
AIOKQVJVNPDJKA-ZZMNMWMASA-L

> <FORMULA>
C12H14MgO12

> <MOLECULAR_WEIGHT>
374.537

> <EXACT_MASS>
374.03356759

> <JCHEM_ACCEPTOR_COUNT>
5

> <JCHEM_ATOM_COUNT>
39

> <JCHEM_AVERAGE_POLARIZABILITY>
14.53220911748349

> <JCHEM_BIOAVAILABILITY>
1

> <JCHEM_DONOR_COUNT>
3

> <JCHEM_FORMAL_CHARGE>
0

> <JCHEM_GHOSE_FILTER>
0

> <JCHEM_IUPAC>
magnesium(2+) bis((2R)-2-[(1S)-1,2-dihydroxyethyl]-4-hydroxy-5-oxo-2,5-dihydrofuran-3-olate)

> <ALOGPS_LOGP>
-1.68

> <JCHEM_LOGP>
-1.9135588756666668

> <ALOGPS_LOGS>
-1.62

> <JCHEM_MDDR_LIKE_RULE>
0

> <JCHEM_NUMBER_OF_RINGS>
2

> <JCHEM_PHYSIOLOGICAL_CHARGE>
-1

> <JCHEM_PKA>
11.194691755527732

> <JCHEM_PKA_STRONGEST_ACIDIC>
4.359917400580226

> <JCHEM_PKA_STRONGEST_BASIC>
-2.979728932431362

> <JCHEM_POLAR_SURFACE_AREA>
110.05000000000001

> <JCHEM_REFRACTIVITY>
47.58240000000001

> <JCHEM_ROTATABLE_BOND_COUNT>
4

> <JCHEM_RULE_OF_FIVE>
1

> <ALOGPS_SOLUBILITY>
9.07e+00 g/l

> <JCHEM_TRADITIONAL_IUPAC>
magnesium(2+) bis(vitamin-C)

> <JCHEM_VEBER_RULE>
0

> <DRUGBANK_ID>
DB14484

> <SECONDARY_ACCESSION_NUMBERS>
DBSALT002423

> <DRUG_GROUPS>
approved; nutraceutical

> <GENERIC_NAME>
Magnesium ascorbate

> <SYNONYMS>
Ascorbic acid, magnesium salt; L(+)-ascorbic acid magnesium salt; Vitamin C magnesium salt

> <PRODUCTS>
EnBrace HR; EnLyte; Energy 80 Prolonged Release Tab; OB Complete Gold; PramLyte

$$$$

  Mrv1718007061818282D          

 27 26  0  0  0  0            999 V2000
    3.9380    0.4906    0.0000 Zn  0  2  0  0  0  0  0  0  0  0  0  0
   -2.8697   -0.6287    0.0000 C   0  0  0  0  0  0  0  0  0  0  0  0
   -3.3333   -1.3372    0.0000 O   0  0  0  0  0  0  0  0  0  0  0  0
   -2.0398   -0.6287    0.0000 C   0  0  0  0  0  0  0  0  0  0  0  0
   -1.5308   -1.2815    0.0000 O   0  5  0  0  0  0  0  0  0  0  0  0
   -1.8038    0.1643    0.0000 C   0  0  1  0  0  0  0  0  0  0  0  0
   -1.2156   -0.4109    0.0000 H   0  0  0  0  0  0  0  0  0  0  0  0
   -1.0260    0.4394    0.0000 C   0  0  1  0  0  0  0  0  0  0  0  0
   -1.0260    1.3372    0.0000 O   0  0  0  0  0  0  0  0  0  0  0  0
   -0.3866    0.0211    0.0000 C   0  0  0  0  0  0  0  0  0  0  0  0
    0.3047    0.3938    0.0000 O   0  0  0  0  0  0  0  0  0  0  0  0
   -2.4923    0.6277    0.0000 O   0  0  0  0  0  0  0  0  0  0  0  0
   -3.1404    0.1238    0.0000 C   0  0  0  0  0  0  0  0  0  0  0  0
   -3.9380    0.3599    0.0000 O   0  0  0  0  0  0  0  0  0  0  0  0
   -2.8697   -0.6287    0.0000 C   0  0  0  0  0  0  0  0  0  0  0  0
   -3.3333   -1.3372    0.0000 O   0  0  0  0  0  0  0  0  0  0  0  0
   -2.0398   -0.6287    0.0000 C   0  0  0  0  0  0  0  0  0  0  0  0
   -1.5308   -1.2815    0.0000 O   0  5  0  0  0  0  0  0  0  0  0  0
   -1.8038    0.1643    0.0000 C   0  0  1  0  0  0  0  0  0  0  0  0
   -1.2156   -0.4109    0.0000 H   0  0  0  0  0  0  0  0  0  0  0  0
   -1.0260    0.4394    0.0000 C   0  0  1  0  0  0  0  0  0  0  0  0
   -1.0260    1.3372    0.0000 O   0  0  0  0  0  0  0  0  0  0  0  0
   -0.3866    0.0211    0.0000 C   0  0  0  0  0  0  0  0  0  0  0  0
    0.3047    0.3938    0.0000 O   0  0  0  0  0  0  0  0  0  0  0  0
   -2.4923    0.6277    0.0000 O   0  0  0  0  0  0  0  0  0  0  0  0
   -3.1404    0.1238    0.0000 C   0  0  0  0  0  0  0  0  0  0  0  0
   -3.9380    0.3599    0.0000 O   0  0  0  0  0  0  0  0  0  0  0  0
  2  3  1  0  0  0  0
  2  4  2  0  0  0  0
  2 13  1  0  0  0  0
  4  5  1  0  0  0  0
  4  6  1  0  0  0  0
  6  7  1  1  0  0  0
  6  8  1  0  0  0  0
  6 12  1  0  0  0  0
  8  9  1  1  0  0  0
  8 10  1  0  0  0  0
 10 11  1  0  0  0  0
 12 13  1  0  0  0  0
 13 14  2  0  0  0  0
 15 16  1  0  0  0  0
 15 17  2  0  0  0  0
 15 26  1  0  0  0  0
 17 18  1  0  0  0  0
 17 19  1  0  0  0  0
 19 20  1  1  0  0  0
 19 21  1  0  0  0  0
 19 25  1  0  0  0  0
 21 22  1  1  0  0  0
 21 23  1  0  0  0  0
 23 24  1  0  0  0  0
 25 26  1  0  0  0  0
 26 27  2  0  0  0  0
M  CHG  3   1   2   5  -1  18  -1
M  END
> <DATABASE_ID>
DB14485

> <DATABASE_NAME>
drugbank

> <SMILES>
[Zn++].[H][C@@]1(OC(=O)C(O)=C1[O-])[C@@H](O)CO.[H][C@@]1(OC(=O)C(O)=C1[O-])[C@@H](O)CO

> <INCHI_IDENTIFIER>
InChI=1S/2C6H8O6.Zn/c2*7-1-2(8)5-3(9)4(10)6(11)12-5;/h2*2,5,7-10H,1H2;/q;;+2/p-2/t2*2-,5+;/m00./s1

> <INCHI_KEY>
WWRJFSIRMWUMAE-ZZMNMWMASA-L

> <FORMULA>
C12H14O12Zn

> <MOLECULAR_WEIGHT>
415.61

> <EXACT_MASS>
413.977668

> <JCHEM_ACCEPTOR_COUNT>
5

> <JCHEM_ATOM_COUNT>
39

> <JCHEM_AVERAGE_POLARIZABILITY>
14.57794282643259

> <JCHEM_BIOAVAILABILITY>
1

> <JCHEM_DONOR_COUNT>
3

> <JCHEM_FORMAL_CHARGE>
0

> <JCHEM_GHOSE_FILTER>
0

> <JCHEM_IUPAC>
zinc(2+) bis((2R)-2-[(1S)-1,2-dihydroxyethyl]-4-hydroxy-5-oxo-2,5-dihydrofuran-3-olate)

> <ALOGPS_LOGP>
-1.61

> <JCHEM_LOGP>
-1.9135588756666668

> <ALOGPS_LOGS>
-0.98

> <JCHEM_MDDR_LIKE_RULE>
0

> <JCHEM_NUMBER_OF_RINGS>
2

> <JCHEM_PHYSIOLOGICAL_CHARGE>
-1

> <JCHEM_PKA>
11.194691755527732

> <JCHEM_PKA_STRONGEST_ACIDIC>
4.359917400580226

> <JCHEM_PKA_STRONGEST_BASIC>
-2.979728932431362

> <JCHEM_POLAR_SURFACE_AREA>
110.05000000000001

> <JCHEM_REFRACTIVITY>
47.58240000000001

> <JCHEM_ROTATABLE_BOND_COUNT>
4

> <JCHEM_RULE_OF_FIVE>
1

> <ALOGPS_SOLUBILITY>
4.34e+01 g/l

> <JCHEM_TRADITIONAL_IUPAC>
zinc(2+) bis(vitamin-C)

> <JCHEM_VEBER_RULE>
0

> <DRUGBANK_ID>
DB14485

> <SECONDARY_ACCESSION_NUMBERS>
DBSALT002424

> <DRUG_GROUPS>
approved; nutraceutical

> <GENERIC_NAME>
Zinc ascorbate

> <SYNONYMS>
(-)-ascorbic acid, zinc salt; L-ascorbic acid, zinc salt; L-ascorbic acid, zinc salt (2:1)

> <PRODUCTS>
EnBrace HR; EnLyte; PramLyte

$$$$

  Mrv1718007061818312D          

 23 23  0  0  0  0            999 V2000
    1.6725   -1.2028    0.0000 O   0  0  0  0  0  0  0  0  0  0  0  0
    1.4193   -0.4231    0.0000 C   0  0  0  0  0  0  0  0  0  0  0  0
    1.9057    0.2432    0.0000 C   0  0  1  0  0  0  0  0  0  0  0  0
    2.6187   -0.1632    0.0000 H   0  0  0  0  0  0  0  0  0  0  0  0
    2.6187    0.6563    0.0000 C   0  0  0  0  0  0  0  0  0  0  0  0
    3.0319   -0.0565    0.0000 H   0  0  0  0  0  0  0  0  0  0  0  0
    2.2056    1.3759    0.0000 O   0  0  0  0  0  0  0  0  0  0  0  0
    3.3318    1.0694    0.0000 C   0  0  0  0  0  0  0  0  0  0  0  0
    3.3318    1.8957    0.0000 O   0  0  0  0  0  0  0  0  0  0  0  0
    1.4193    0.9162    0.0000 O   0  0  0  0  0  0  0  0  0  0  0  0
    0.6330    0.6563    0.0000 C   0  0  0  0  0  0  0  0  0  0  0  0
   -0.0333    1.1427    0.0000 O   0  0  0  0  0  0  0  0  0  0  0  0
    0.6330   -0.1632    0.0000 C   0  0  0  0  0  0  0  0  0  0  0  0
   -0.0333   -0.6496    0.0000 O   0  0  0  0  0  0  0  0  0  0  0  0
   -1.6859   -1.1827    0.0000 C   0  0  0  0  0  0  0  0  0  0  0  0
   -2.0923   -0.4698    0.0000 C   0  0  0  0  0  0  0  0  0  0  0  0
   -1.6859    0.2432    0.0000 C   0  0  0  0  0  0  0  0  0  0  0  0
   -2.0923    0.9628    0.0000 C   0  0  0  0  0  0  0  0  0  0  0  0
   -2.9185    0.9628    0.0000 C   0  0  0  0  0  0  0  0  0  0  0  0
   -3.3318    0.2432    0.0000 N   0  0  0  0  0  0  0  0  0  0  0  0
   -2.9185   -0.4698    0.0000 C   0  0  0  0  0  0  0  0  0  0  0  0
   -2.0923   -1.8957    0.0000 O   0  0  0  0  0  0  0  0  0  0  0  0
   -0.8596   -1.1827    0.0000 N   0  0  0  0  0  0  0  0  0  0  0  0
  1  2  1  0  0  0  0
  2  3  1  0  0  0  0
  2 13  2  0  0  0  0
  3  4  1  1  0  0  0
  3  5  1  0  0  0  0
  3 10  1  0  0  0  0
  5  6  1  6  0  0  0
  5  7  1  0  0  0  0
  5  8  1  0  0  0  0
  8  9  1  0  0  0  0
 10 11  1  0  0  0  0
 11 12  2  0  0  0  0
 11 13  1  0  0  0  0
 13 14  1  0  0  0  0
 15 16  1  0  0  0  0
 15 22  2  0  0  0  0
 15 23  1  0  0  0  0
 16 17  1  0  0  0  0
 16 21  2  0  0  0  0
 17 18  2  0  0  0  0
 18 19  1  0  0  0  0
 19 20  2  0  0  0  0
 20 21  1  0  0  0  0
M  END
> <DATABASE_ID>
DB14486

> <DATABASE_NAME>
drugbank

> <SMILES>
NC(=O)C1=CN=CC=C1.[H]C(O)(CO)[C@@]1([H])OC(=O)C(O)=C1O

> <INCHI_IDENTIFIER>
InChI=1S/C6H6N2O.C6H8O6/c7-6(9)5-2-1-3-8-4-5;7-1-2(8)5-3(9)4(10)6(11)12-5/h1-4H,(H2,7,9);2,5,7-10H,1H2/t;2-,5+/m.0/s1

> <INCHI_KEY>
JMORAWFVNMGOKQ-MGMRMFRLSA-N

> <FORMULA>
C12H14N2O7

> <MOLECULAR_WEIGHT>
298.251

> <EXACT_MASS>
298.080100799

> <JCHEM_ACCEPTOR_COUNT>
5

> <JCHEM_ATOM_COUNT>
35

> <JCHEM_AVERAGE_POLARIZABILITY>
15.02716201164992

> <JCHEM_BIOAVAILABILITY>
1

> <JCHEM_DONOR_COUNT>
4

> <JCHEM_FORMAL_CHARGE>
0

> <JCHEM_GHOSE_FILTER>
0

> <JCHEM_IUPAC>
(5R)-5-(1,2-dihydroxyethyl)-3,4-dihydroxy-2,5-dihydrofuran-2-one; pyridine-3-carboxamide

> <ALOGPS_LOGP>
-1.58

> <JCHEM_LOGP>
-1.9135588756666668

> <ALOGPS_LOGS>
0.14

> <JCHEM_MDDR_LIKE_RULE>
0

> <JCHEM_NUMBER_OF_RINGS>
2

> <JCHEM_PHYSIOLOGICAL_CHARGE>
-1

> <JCHEM_PKA>
11.194691755527732

> <JCHEM_PKA_STRONGEST_ACIDIC>
4.359917400580226

> <JCHEM_PKA_STRONGEST_BASIC>
-2.979728932431362

> <JCHEM_POLAR_SURFACE_AREA>
107.22000000000001

> <JCHEM_REFRACTIVITY>
37.0321

> <JCHEM_ROTATABLE_BOND_COUNT>
3

> <JCHEM_RULE_OF_FIVE>
1

> <ALOGPS_SOLUBILITY>
2.45e+02 g/l

> <JCHEM_TRADITIONAL_IUPAC>
(5R)-5-(1,2-dihydroxyethyl)-3,4-dihydroxy-5H-furan-2-one; nicotinamide

> <JCHEM_VEBER_RULE>
0

> <DRUGBANK_ID>
DB14486

> <SECONDARY_ACCESSION_NUMBERS>
DBSALT002426

> <DRUG_GROUPS>
approved; nutraceutical

> <GENERIC_NAME>
Niacinamide ascorbate

> <SYNONYMS>
Ascorbic acid nicotinamide complex; Niacinamide ascorbate; Nicotinamide-ascorbic acid complex

> <PRODUCTS>
Daily Balance Tab; Multiple Vitamins With Iron Tablets; Nutrifer Plus Tablets; Paramettes Adults; Se-Natal; Se-Natal One; Stress B Complex With C and E Tab; Stress B Complex With C, E and Iron Tab; Stress B Complex With C,e, Zinc and Copper; Stress B-complex Plus Iron With Vitamins C&e

$$$$

  Mrv1718007121812202D          

 17 14  0  0  0  0            999 V2000
    2.0640    0.2750    0.0000 C   0  0  0  0  0  0  0  0  0  0  0  0
    0.6350    0.2750    0.0000 C   0  0  0  0  0  0  0  0  0  0  0  0
   -0.0793   -0.1375    0.0000 C   0  0  0  0  0  0  0  0  0  0  0  0
    1.3495   -0.1375    0.0000 C   0  0  0  0  0  0  0  0  0  0  0  0
   -0.7938    0.2750    0.0000 C   0  0  0  0  0  0  0  0  0  0  0  0
    1.3495   -0.9625    0.0000 O   0  0  0  0  0  0  0  0  0  0  0  0
   -0.7938    1.1000    0.0000 O   0  0  0  0  0  0  0  0  0  0  0  0
   -1.5083   -0.1375    0.0000 O   0  5  0  0  0  0  0  0  0  0  0  0
    7.4042    0.2062    0.0000 C   0  0  0  0  0  0  0  0  0  0  0  0
    5.9752    0.2062    0.0000 C   0  0  0  0  0  0  0  0  0  0  0  0
    5.2608   -0.2062    0.0000 C   0  0  0  0  0  0  0  0  0  0  0  0
    6.6897   -0.2062    0.0000 C   0  0  0  0  0  0  0  0  0  0  0  0
    4.5463    0.2062    0.0000 C   0  0  0  0  0  0  0  0  0  0  0  0
    6.6897   -1.0312    0.0000 O   0  0  0  0  0  0  0  0  0  0  0  0
    3.8318   -0.2062    0.0000 O   0  0  0  0  0  0  0  0  0  0  0  0
    4.5463    1.0312    0.0000 O   0  5  0  0  0  0  0  0  0  0  0  0
   -2.2227   -0.5500    0.0000 Mg  0  2  0  0  0  0  0  0  0  0  0  0
  3  2  1  0  0  0  0
  4  1  1  0  0  0  0
  4  2  1  0  0  0  0
  5  3  1  0  0  0  0
  6  4  2  0  0  0  0
  7  5  2  0  0  0  0
  8  5  1  0  0  0  0
 11 10  1  0  0  0  0
 12  9  1  0  0  0  0
 12 10  1  0  0  0  0
 13 11  1  0  0  0  0
 14 12  2  0  0  0  0
 15 13  2  0  0  0  0
 16 13  1  0  0  0  0
M  CHG  3   8  -1  16  -1  17   2
M  END
> <DATABASE_ID>
DB14514

> <DATABASE_NAME>
drugbank

> <SMILES>
[Mg++].CC(=O)CCC([O-])=O.CC(=O)CCC([O-])=O

> <INCHI_IDENTIFIER>
InChI=1S/2C5H8O3.Mg/c2*1-4(6)2-3-5(7)8;/h2*2-3H2,1H3,(H,7,8);/q;;+2/p-2

> <INCHI_KEY>
RECCGACJWKEPOU-UHFFFAOYSA-L

> <FORMULA>
C10H14MgO6

> <MOLECULAR_WEIGHT>
254.521

> <EXACT_MASS>
254.06407987

> <JCHEM_ACCEPTOR_COUNT>
3

> <JCHEM_ATOM_COUNT>
31

> <JCHEM_AVERAGE_POLARIZABILITY>
10.792386059301254

> <JCHEM_BIOAVAILABILITY>
1

> <JCHEM_DONOR_COUNT>
0

> <JCHEM_FORMAL_CHARGE>
0

> <JCHEM_GHOSE_FILTER>
0

> <JCHEM_IUPAC>
magnesium(2+) bis(4-oxopentanoate)

> <ALOGPS_LOGP>
0.82

> <JCHEM_LOGP>
-0.06885744466666677

> <ALOGPS_LOGS>
-2.32

> <JCHEM_MDDR_LIKE_RULE>
0

> <JCHEM_NUMBER_OF_RINGS>
0

> <JCHEM_PHYSIOLOGICAL_CHARGE>
-1

> <JCHEM_PKA>
19.627366923008264

> <JCHEM_PKA_STRONGEST_ACIDIC>
4.321649025460565

> <JCHEM_PKA_STRONGEST_BASIC>
-7.2827110371620964

> <JCHEM_POLAR_SURFACE_AREA>
57.2

> <JCHEM_REFRACTIVITY>
37.925200000000004

> <JCHEM_ROTATABLE_BOND_COUNT>
6

> <JCHEM_RULE_OF_FIVE>
1

> <ALOGPS_SOLUBILITY>
1.22e+00 g/l

> <JCHEM_TRADITIONAL_IUPAC>
magnesium levulinate

> <JCHEM_VEBER_RULE>
0

> <DRUGBANK_ID>
DB14514

> <SECONDARY_ACCESSION_NUMBERS>
DBSALT002481

> <DRUG_GROUPS>
nutraceutical

> <GENERIC_NAME>
Magnesium levulinate

> <SYNONYMS>
Magnesium diasporal

$$$$

  Mrv1909 03072016542D          

 13 10  0  0  0  0            999 V2000
   -0.2712    2.2015    0.0000 Mg  0  2  0  0  0  0  0  0  0  0  0  0
    0.3846    1.0575    0.0000 O   0  0  0  0  0  0  0  0  0  0  0  0
    0.3846    0.2900    0.0000 C   0  0  0  0  0  0  0  0  0  0  0  0
    1.0007   -0.2587    0.0000 C   0  0  0  0  0  0  0  0  0  0  0  0
    0.7916   -1.0575    0.0000 O   0  5  0  0  0  0  0  0  0  0  0  0
    1.7872    0.0002    0.0000 O   0  0  0  0  0  0  0  0  0  0  0  0
   -0.2790   -0.0959    0.0000 C   0  0  0  0  0  0  0  0  0  0  0  0
    1.9837    3.1134    0.0000 O   0  0  0  0  0  0  0  0  0  0  0  0
    1.9837    2.3459    0.0000 C   0  0  0  0  0  0  0  0  0  0  0  0
    2.5997    1.7971    0.0000 C   0  0  0  0  0  0  0  0  0  0  0  0
    2.3907    0.9983    0.0000 O   0  5  0  0  0  0  0  0  0  0  0  0
    3.3862    2.0561    0.0000 O   0  0  0  0  0  0  0  0  0  0  0  0
    1.3199    1.9599    0.0000 C   0  0  0  0  0  0  0  0  0  0  0  0
  3  2  1  0  0  0  0
  4  3  1  0  0  0  0
  4  5  1  0  0  0  0
  4  6  2  0  0  0  0
  7  3  1  0  0  0  0
  9  8  1  0  0  0  0
 10  9  1  0  0  0  0
 13  9  1  0  0  0  0
 10 11  1  0  0  0  0
 10 12  2  0  0  0  0
M  CHG  3   1   2   5  -1  11  -1
M  END
> <DATABASE_ID>
DB14515

> <DATABASE_NAME>
drugbank

> <SMILES>
[Mg++].CC(O)C([O-])=O.CC(O)C([O-])=O

> <INCHI_IDENTIFIER>
InChI=1S/2C3H6O3.Mg/c2*1-2(4)3(5)6;/h2*2,4H,1H3,(H,5,6);/q;;+2/p-2

> <INCHI_KEY>
OVGXLJDWSLQDRT-UHFFFAOYSA-L

> <FORMULA>
C6H10MgO6

> <MOLECULAR_WEIGHT>
202.445

> <EXACT_MASS>
202.03277995

> <JCHEM_ACCEPTOR_COUNT>
3

> <JCHEM_ATOM_COUNT>
23

> <JCHEM_AVERAGE_NEUTRAL_MICROSPECIES_CHARGE>
-0.999390940605672

> <JCHEM_AVERAGE_POLARIZABILITY>
7.647949520006335

> <JCHEM_BIOAVAILABILITY>
1

> <JCHEM_DONOR_COUNT>
1

> <JCHEM_FORMAL_CHARGE>
0

> <JCHEM_GHOSE_FILTER>
0

> <JCHEM_IUPAC>
magnesium(2+) bis(2-hydroxypropanoate)

> <ALOGPS_LOGP>
-0.33

> <JCHEM_LOGP>
-0.47182951800000017

> <ALOGPS_LOGS>
-0.42

> <JCHEM_MDDR_LIKE_RULE>
0

> <JCHEM_NEUTRAL_CHARGE>
-1

> <JCHEM_NUMBER_OF_RINGS>
0

> <JCHEM_PHYSIOLOGICAL_CHARGE>
-1

> <JCHEM_PKA>
14.593508084825759

> <JCHEM_PKA_STRONGEST_ACIDIC>
3.784942414122654

> <JCHEM_PKA_STRONGEST_BASIC>
-3.669649383241333

> <JCHEM_POLAR_SURFACE_AREA>
60.36

> <JCHEM_REFRACTIVITY>
29.676900000000003

> <JCHEM_ROTATABLE_BOND_COUNT>
2

> <JCHEM_RULE_OF_FIVE>
1

> <ALOGPS_SOLUBILITY>
7.76e+01 g/l

> <JCHEM_TRADITIONAL_IUPAC>
lugol's iodine

> <JCHEM_VEBER_RULE>
0

> <DRUGBANK_ID>
DB14515

> <SECONDARY_ACCESSION_NUMBERS>
DBSALT002535

> <DRUG_GROUPS>
nutraceutical

> <GENERIC_NAME>
Magnesium lactate

> <SYNONYMS>
Magnesium DL-lactate; Magnesium lactate anhydrous; Magnesium lactate, anhydrous

$$$$

  Mrv1718009011819382D          

 21 22  0  0  0  0            999 V2000
    1.0346    2.0594    0.0000 P   0  0  0  0  0  0  0  0  0  0  0  0
    1.0491   -2.0644    0.0000 P   0  0  0  0  0  0  0  0  0  0  0  0
    0.3271    0.8190    0.0000 C   0  0  0  0  0  0  0  0  0  0  0  0
    0.3367   -0.8335    0.0000 C   0  0  0  0  0  0  0  0  0  0  0  0
   -0.3803    0.4022    0.0000 C   0  0  0  0  0  0  0  0  0  0  0  0
   -0.3803   -0.4216    0.0000 C   0  0  0  0  0  0  0  0  0  0  0  0
    0.3222    1.6427    0.0000 O   0  0  0  0  0  0  0  0  0  0  0  0
    0.3367   -1.6573    0.0000 O   0  0  0  0  0  0  0  0  0  0  0  0
    1.0443    0.4119    0.0000 C   0  0  0  0  0  0  0  0  0  0  0  0
    1.0491   -0.4167    0.0000 C   0  0  0  0  0  0  0  0  0  0  0  0
    1.7954    1.6719    0.0000 O   0  0  0  0  0  0  0  0  0  0  0  0
    1.4369    2.7768    0.0000 O   0  0  0  0  0  0  0  0  0  0  0  0
    1.8050   -1.6331    0.0000 O   0  0  0  0  0  0  0  0  0  0  0  0
    1.4950   -2.7525    0.0000 O   0  0  0  0  0  0  0  0  0  0  0  0
    0.6178    2.7768    0.0000 O   0  0  0  0  0  0  0  0  0  0  0  0
    0.6323   -2.7768    0.0000 O   0  0  0  0  0  0  0  0  0  0  0  0
   -1.0927    0.8141    0.0000 C   0  0  0  0  0  0  0  0  0  0  0  0
    1.7567    0.8286    0.0000 C   0  0  0  0  0  0  0  0  0  0  0  0
   -1.0927   -0.8383    0.0000 C   0  0  0  0  0  0  0  0  0  0  0  0
   -1.8050    0.4022    0.0000 C   0  0  0  0  0  0  0  0  0  0  0  0
   -1.8050   -0.4264    0.0000 C   0  0  0  0  0  0  0  0  0  0  0  0
  2  8  1  0  0  0  0
  3  7  1  0  0  0  0
  4  6  1  0  0  0  0
  5  3  1  0  0  0  0
  6  5  1  0  0  0  0
  7  1  1  0  0  0  0
  8  4  1  0  0  0  0
  9  3  2  0  0  0  0
 10  9  1  0  0  0  0
 11  1  1  0  0  0  0
 12  1  1  0  0  0  0
 13  2  1  0  0  0  0
 14  2  1  0  0  0  0
 15  1  2  0  0  0  0
 16  2  2  0  0  0  0
 17  5  2  0  0  0  0
 18  9  1  0  0  0  0
 19  6  2  0  0  0  0
 20 17  1  0  0  0  0
 21 19  1  0  0  0  0
 10  4  2  0  0  0  0
 21 20  2  0  0  0  0
M  END
> <DATABASE_ID>
DB14650

> <DATABASE_NAME>
drugbank

> <SMILES>
CC1=C(OP(O)(O)=O)C2=CC=CC=C2C(OP(O)(O)=O)=C1

> <INCHI_IDENTIFIER>
InChI=1S/C11H12O8P2/c1-7-6-10(18-20(12,13)14)8-4-2-3-5-9(8)11(7)19-21(15,16)17/h2-6H,1H3,(H2,12,13,14)(H2,15,16,17)

> <INCHI_KEY>
JTNHOVZOOVVGHI-UHFFFAOYSA-N

> <FORMULA>
C11H12O8P2

> <MOLECULAR_WEIGHT>
334.1557

> <EXACT_MASS>
334.000740384

> <JCHEM_ACCEPTOR_COUNT>
6

> <JCHEM_ATOM_COUNT>
33

> <JCHEM_AVERAGE_POLARIZABILITY>
27.4286635250309

> <JCHEM_BIOAVAILABILITY>
1

> <JCHEM_DONOR_COUNT>
4

> <JCHEM_FORMAL_CHARGE>
0

> <JCHEM_GHOSE_FILTER>
1

> <JCHEM_IUPAC>
{[3-methyl-4-(phosphonooxy)naphthalen-1-yl]oxy}phosphonic acid

> <ALOGPS_LOGP>
0.84

> <JCHEM_LOGP>
1.5612830273333334

> <ALOGPS_LOGS>
-2.59

> <JCHEM_MDDR_LIKE_RULE>
0

> <JCHEM_NUMBER_OF_RINGS>
2

> <JCHEM_PHYSIOLOGICAL_CHARGE>
-4

> <JCHEM_PKA>
2.075618569922639

> <JCHEM_PKA_STRONGEST_ACIDIC>
1.4713832235792101

> <JCHEM_POLAR_SURFACE_AREA>
133.52

> <JCHEM_REFRACTIVITY>
73.257

> <JCHEM_ROTATABLE_BOND_COUNT>
4

> <JCHEM_RULE_OF_FIVE>
1

> <ALOGPS_SOLUBILITY>
8.54e-01 g/l

> <JCHEM_TRADITIONAL_IUPAC>
[3-methyl-4-(phosphonooxy)naphthalen-1-yl]oxyphosphonic acid

> <JCHEM_VEBER_RULE>
0

> <DRUGBANK_ID>
DB14650

> <SECONDARY_ACCESSION_NUMBERS>
DBSALT000878

> <DRUG_GROUPS>
approved; nutraceutical

> <GENERIC_NAME>
Menadiol diphosphate

> <SYNONYMS>
2-methyl-1,4-naphthalenediol diphosphate; Menadiol bis(dihydrogen phosphate); Menadiol phosphate

> <SALTS>
Menadiol sodium diphosphate

$$$$

  Mrv1718001141916522D          

 20 22  0  0  0  0            999 V2000
   -1.4331   -0.4998    0.0000 C   0  0  0  0  0  0  0  0  0  0  0  0
   -1.4331   -1.3295    0.0000 C   0  0  0  0  0  0  0  0  0  0  0  0
   -0.6449   -0.2433    0.0000 C   0  0  0  0  0  0  0  0  0  0  0  0
   -2.1535   -0.0886    0.0000 C   0  0  0  0  0  0  0  0  0  0  0  0
   -0.6487   -1.5784    0.0000 N   0  0  0  0  0  0  0  0  0  0  0  0
   -2.1535   -1.7481    0.0000 N   0  0  0  0  0  0  0  0  0  0  0  0
   -0.1658   -0.9183    0.0000 C   0  0  0  0  0  0  0  0  0  0  0  0
   -0.3883    0.5336    0.0000 C   0  0  0  0  0  0  0  0  0  0  0  0
   -2.8664   -0.4998    0.0000 N   0  0  0  0  0  0  0  0  0  0  0  0
   -2.1573    0.7298    0.0000 O   0  0  0  0  0  0  0  0  0  0  0  0
   -2.8664   -1.3295    0.0000 C   0  0  0  0  0  0  0  0  0  0  0  0
    0.5506    0.8429    0.0000 N   0  0  0  0  0  0  0  0  0  0  0  0
   -3.6169   -1.7481    0.0000 N   0  0  0  0  0  0  0  0  0  0  0  0
    1.5124    0.4507    0.0000 C   0  0  2  0  0  0  0  0  0  0  0  0
    2.1724    0.9259    0.0000 C   0  0  2  0  0  0  0  0  0  0  0  0
    1.7613   -0.3337    0.0000 C   0  0  0  0  0  0  0  0  0  0  0  0
    2.8400    0.4507    0.0000 C   0  0  2  0  0  0  0  0  0  0  0  0
    2.1687    1.7481    0.0000 O   0  0  0  0  0  0  0  0  0  0  0  0
    2.5873   -0.3337    0.0000 C   0  0  0  0  0  0  0  0  0  0  0  0
    3.6169    0.7071    0.0000 O   0  0  0  0  0  0  0  0  0  0  0  0
  1  2  2  0  0  0  0
  1  3  1  0  0  0  0
  1  4  1  0  0  0  0
  2  5  1  0  0  0  0
  2  6  1  0  0  0  0
  3  7  2  0  0  0  0
  3  8  1  0  0  0  0
  4  9  1  0  0  0  0
  4 10  2  0  0  0  0
  6 11  2  0  0  0  0
  8 12  1  0  0  0  0
 11 13  1  0  0  0  0
 14 12  1  6  0  0  0
 14 15  1  0  0  0  0
 14 16  1  0  0  0  0
 15 17  1  0  0  0  0
 15 18  1  1  0  0  0
 16 19  2  0  0  0  0
 17 20  1  1  0  0  0
  5  7  1  0  0  0  0
  9 11  1  0  0  0  0
 17 19  1  0  0  0  0
M  END
> <DATABASE_ID>
DB14732

> <DATABASE_NAME>
drugbank

> <SMILES>
NC1=NC2=C(C(CN[C@H]3C=C[C@H](O)[C@@H]3O)=CN2)C(=O)N1

> <INCHI_IDENTIFIER>
InChI=1S/C12H15N5O3/c13-12-16-10-8(11(20)17-12)5(4-15-10)3-14-6-1-2-7(18)9(6)19/h1-2,4,6-7,9,14,18-19H,3H2,(H4,13,15,16,17,20)/t6-,7-,9+/m0/s1

> <INCHI_KEY>
WYROLENTHWJFLR-ACLDMZEESA-N

> <FORMULA>
C12H15N5O3

> <MOLECULAR_WEIGHT>
277.2792

> <EXACT_MASS>
277.117489371

> <JCHEM_ACCEPTOR_COUNT>
7

> <JCHEM_ATOM_COUNT>
35

> <JCHEM_AVERAGE_POLARIZABILITY>
27.420174200194403

> <JCHEM_BIOAVAILABILITY>
1

> <JCHEM_DONOR_COUNT>
7

> <JCHEM_FORMAL_CHARGE>
0

> <JCHEM_GHOSE_FILTER>
0

> <JCHEM_IUPAC>
(1R,2S,5S)-5-[({4-hydroxy-2-imino-1H,2H,7H-pyrrolo[2,3-d]pyrimidin-5-yl}methyl)amino]cyclopent-3-ene-1,2-diol

> <ALOGPS_LOGP>
-1.56

> <JCHEM_LOGP>
-2.5732749145783407

> <ALOGPS_LOGS>
-2.67

> <JCHEM_MDDR_LIKE_RULE>
0

> <JCHEM_NUMBER_OF_RINGS>
3

> <JCHEM_PHYSIOLOGICAL_CHARGE>
1

> <JCHEM_PKA>
12.140253130775825

> <JCHEM_PKA_STRONGEST_ACIDIC>
1.9488389862521558

> <JCHEM_PKA_STRONGEST_BASIC>
21.257389780329934

> <JCHEM_POLAR_SURFACE_AREA>
136.75

> <JCHEM_REFRACTIVITY>
83.9747

> <JCHEM_ROTATABLE_BOND_COUNT>
3

> <JCHEM_RULE_OF_FIVE>
0

> <ALOGPS_SOLUBILITY>
5.90e-01 g/l

> <JCHEM_TRADITIONAL_IUPAC>
queuine

> <JCHEM_VEBER_RULE>
0

> <DRUGBANK_ID>
DB14732

> <DRUG_GROUPS>
experimental; nutraceutical

> <GENERIC_NAME>
Queuine

> <SYNONYMS>
7-(3,4-trans-4,5-cis-dihydroxy-1-cyclopenten-3-ylaminomethyl)-7-deazaguanine; Base Q; Q Base

$$$$
