
  Mrv1718010171715502D          

101106  0  0  0  0            999 V2000
   -2.2148   -2.0385    0.0000 C   0  0  0  0  0  0  0  0  0  0  0  0
   -2.9162   -3.3172    0.0000 C   0  0  0  0  0  0  0  0  0  0  0  0
   -2.2148   -3.7297    0.0000 C   0  0  0  0  0  0  0  0  0  0  0  0
   -1.4724   -3.3172    0.0000 C   0  0  0  0  0  0  0  0  0  0  0  0
   -1.4724   -2.4509    0.0000 N   0  0  0  0  0  0  0  0  0  0  0  0
  -10.6298   -2.0385    0.0000 C   0  0  0  0  0  0  0  0  0  0  0  0
  -10.6298   -1.2135    0.0000 C   0  0  0  0  0  0  0  0  0  0  0  0
  -11.3310   -0.8010    0.0000 C   0  0  0  0  0  0  0  0  0  0  0  0
  -12.0736   -1.2135    0.0000 C   0  0  0  0  0  0  0  0  0  0  0  0
  -12.0736   -2.0385    0.0000 C   0  0  0  0  0  0  0  0  0  0  0  0
  -11.3310   -2.4509    0.0000 C   0  0  0  0  0  0  0  0  0  0  0  0
   -9.9285   -2.4509    0.0000 C   0  0  0  0  0  0  0  0  0  0  0  0
   -9.1862   -2.0385    0.0000 C   0  0  0  0  0  0  0  0  0  0  0  0
   -9.1862   -1.2135    0.0000 C   0  0  0  0  0  0  0  0  0  0  0  0
   -9.9285   -0.8010    0.0000 C   0  0  0  0  0  0  0  0  0  0  0  0
   -8.6086   -0.8010    0.0000 C   0  0  0  0  0  0  0  0  0  0  0  0
   -7.8661   -1.2135    0.0000 C   0  0  2  0  0  0  0  0  0  0  0  0
   -6.4635   -1.2135    0.0000 N   0  0  0  0  0  0  0  0  0  0  0  0
   -7.1648   -0.8010    0.0000 C   0  0  0  0  0  0  0  0  0  0  0  0
   -7.1648    0.0239    0.0000 O   0  0  0  0  0  0  0  0  0  0  0  0
   -5.7623   -0.8010    0.0000 C   0  0  1  0  0  0  0  0  0  0  0  0
   -5.0198   -1.2135    0.0000 C   0  0  0  0  0  0  0  0  0  0  0  0
   -4.3186   -0.8010    0.0000 N   0  0  0  0  0  0  0  0  0  0  0  0
   -3.6173   -1.2135    0.0000 C   0  0  1  0  0  0  0  0  0  0  0  0
   -2.8748   -0.8010    0.0000 C   0  0  0  0  0  0  0  0  0  0  0  0
   -2.1736   -1.2135    0.0000 N   0  0  0  0  0  0  0  0  0  0  0  0
   -1.5136   -0.8010    0.0000 C   0  0  2  0  0  0  0  0  0  0  0  0
   -0.7712   -1.2135    0.0000 C   0  0  0  0  0  0  0  0  0  0  0  0
   -0.0698   -0.8010    0.0000 N   0  0  0  0  0  0  0  0  0  0  0  0
    0.6312   -1.2135    0.0000 C   0  0  2  0  0  0  0  0  0  0  0  0
    1.3738   -0.8010    0.0000 C   0  0  0  0  0  0  0  0  0  0  0  0
   -5.7623    0.0239    0.0000 C   0  0  0  0  0  0  0  0  0  0  0  0
   -5.0198   -2.0385    0.0000 O   0  0  0  0  0  0  0  0  0  0  0  0
   -3.6173   -2.0385    0.0000 C   0  0  0  0  0  0  0  0  0  0  0  0
   -1.5136    0.0239    0.0000 C   0  0  0  0  0  0  0  0  0  0  0  0
   -2.8748    0.0239    0.0000 O   0  0  0  0  0  0  0  0  0  0  0  0
   -0.7712   -2.0385    0.0000 O   0  0  0  0  0  0  0  0  0  0  0  0
   -0.0698    0.0239    0.0000 C   0  0  0  0  0  0  0  0  0  0  0  0
    1.3738    0.0239    0.0000 O   0  0  0  0  0  0  0  0  0  0  0  0
    2.0750   -1.2135    0.0000 N   0  0  0  0  0  0  0  0  0  0  0  0
    4.2201   -0.8010    0.0000 N   0  0  0  0  0  0  0  0  0  0  0  0
    2.7763   -0.8010    0.0000 C   0  0  1  0  0  0  0  0  0  0  0  0
    3.4775   -1.2135    0.0000 C   0  0  0  0  0  0  0  0  0  0  0  0
    4.2201    0.0239    0.0000 N   0  0  0  0  0  0  0  0  0  0  0  0
    3.4775    0.4364    0.0000 C   0  0  0  0  0  0  0  0  0  0  0  0
    2.7763    0.0239    0.0000 C   0  0  0  0  0  0  0  0  0  0  0  0
    3.4775    1.2614    0.0000 O   0  0  0  0  0  0  0  0  0  0  0  0
    3.4775   -2.0385    0.0000 O   0  0  0  0  0  0  0  0  0  0  0  0
    4.9625   -1.2135    0.0000 C   0  0  2  0  0  0  0  0  0  0  0  0
    5.6638   -0.8010    0.0000 C   0  0  0  0  0  0  0  0  0  0  0  0
    6.3652   -1.2135    0.0000 N   0  0  0  0  0  0  0  0  0  0  0  0
    7.1075   -0.8010    0.0000 C   0  0  2  0  0  0  0  0  0  0  0  0
    7.8088   -1.2135    0.0000 C   0  0  0  0  0  0  0  0  0  0  0  0
    5.0038   -2.0385    0.0000 C   0  0  0  0  0  0  0  0  0  0  0  0
    5.6638    0.0239    0.0000 O   0  0  0  0  0  0  0  0  0  0  0  0
    0.6312   -2.0385    0.0000 C   0  0  0  0  0  0  0  0  0  0  0  0
    7.8088   -2.0385    0.0000 O   0  0  0  0  0  0  0  0  0  0  0  0
   -7.8661   -2.0385    0.0000 N   0  0  0  0  0  0  0  0  0  0  0  0
   -7.1648   -2.4509    0.0000 C   0  0  0  0  0  0  0  0  0  0  0  0
   -6.4635   -2.0385    0.0000 C   0  0  0  0  0  0  0  0  0  0  0  0
   -7.1648   -3.2759    0.0000 O   0  0  0  0  0  0  0  0  0  0  0  0
    9.2113   -1.2135    0.0000 C   0  0  1  0  0  0  0  0  0  0  0  0
    9.6238    0.0652    0.0000 C   0  0  0  0  0  0  0  0  0  0  0  0
    8.7988    0.0652    0.0000 C   0  0  0  0  0  0  0  0  0  0  0  0
    8.5513   -0.7185    0.0000 N   0  0  0  0  0  0  0  0  0  0  0  0
    9.8713   -0.7185    0.0000 C   0  0  0  0  0  0  0  0  0  0  0  0
    9.2113   -1.9973    0.0000 C   0  0  0  0  0  0  0  0  0  0  0  0
    8.5047   -2.4257    0.0000 O   0  0  0  0  0  0  0  0  0  0  0  0
   -5.0611    0.4364    0.0000 C   0  0  0  0  0  0  0  0  0  0  0  0
   -4.3186    0.0652    0.0000 C   0  0  0  0  0  0  0  0  0  0  0  0
   -3.6173    0.5190    0.0000 C   0  0  0  0  0  0  0  0  0  0  0  0
   -3.6172    1.3026    0.0000 C   0  0  0  0  0  0  0  0  0  0  0  0
   -4.3596    1.7152    0.0000 C   0  0  0  0  0  0  0  0  0  0  0  0
   -5.0609    1.2614    0.0000 C   0  0  0  0  0  0  0  0  0  0  0  0
   -2.9160    1.7564    0.0000 Cl  0  0  0  0  0  0  0  0  0  0  0  0
   -2.9162   -2.4509    0.0000 C   0  0  0  0  0  0  0  0  0  0  0  0
   -0.8124    0.4364    0.0000 O   0  0  0  0  0  0  0  0  0  0  0  0
    1.3325   -2.4509    0.0000 C   0  0  0  0  0  0  0  0  0  0  0  0
    2.0750   -2.0385    0.0000 C   0  0  0  0  0  0  0  0  0  0  0  0
    1.2960   -3.2796    0.0000 C   0  0  0  0  0  0  0  0  0  0  0  0
    2.0466   -3.7010    0.0000 C   0  0  0  0  0  0  0  0  0  0  0  0
    2.7594   -3.3091    0.0000 C   0  0  0  0  0  0  0  0  0  0  0  0
    2.7842   -2.4600    0.0000 C   0  0  0  0  0  0  0  0  0  0  0  0
    3.4653   -3.7362    0.0000 O   0  0  0  0  0  0  0  0  0  0  0  0
    5.7379   -2.4147    0.0000 C   0  0  0  0  0  0  0  0  0  0  0  0
    6.4310   -1.9671    0.0000 C   0  0  0  0  0  0  0  0  0  0  0  0
    5.7379   -3.2397    0.0000 C   0  0  0  0  0  0  0  0  0  0  0  0
    9.9302   -2.4020    0.0000 N   0  0  0  0  0  0  0  0  0  0  0  0
   11.3591   -2.4020    0.0000 C   0  0  0  0  0  0  0  0  0  0  0  0
   12.0736   -1.9896    0.0000 N   0  0  0  0  0  0  0  0  0  0  0  0
   10.6447   -1.9896    0.0000 C   0  0  1  0  0  0  0  0  0  0  0  0
   10.6447   -1.1646    0.0000 C   0  0  0  0  0  0  0  0  0  0  0  0
   11.3591   -3.2270    0.0000 O   0  0  0  0  0  0  0  0  0  0  0  0
    7.1177    0.0238    0.0000 C   0  0  0  0  0  0  0  0  0  0  0  0
    7.8321    0.4363    0.0000 C   0  0  0  0  0  0  0  0  0  0  0  0
    7.8321    1.2613    0.0000 C   0  0  0  0  0  0  0  0  0  0  0  0
    8.5467    1.6738    0.0000 C   0  0  0  0  0  0  0  0  0  0  0  0
    8.5467    2.4988    0.0000 N   0  0  0  0  0  0  0  0  0  0  0  0
    9.2610    2.9112    0.0000 C   0  0  0  0  0  0  0  0  0  0  0  0
    9.2610    3.7362    0.0000 C   0  0  0  0  0  0  0  0  0  0  0  0
    9.9754    2.4988    0.0000 C   0  0  0  0  0  0  0  0  0  0  0  0
  2  3  2  0  0  0  0
  3  4  1  0  0  0  0
  4  5  2  0  0  0  0
  1  5  1  0  0  0  0
  6  7  2  0  0  0  0
  7  8  1  0  0  0  0
  8  9  2  0  0  0  0
  9 10  1  0  0  0  0
 10 11  2  0  0  0  0
  6 11  1  0  0  0  0
  6 12  1  0  0  0  0
 12 13  2  0  0  0  0
 13 14  1  0  0  0  0
 14 15  2  0  0  0  0
  7 15  1  0  0  0  0
 14 16  1  0  0  0  0
 16 17  1  0  0  0  0
 18 19  1  0  0  0  0
 17 19  1  0  0  0  0
 19 20  2  0  0  0  0
 18 21  1  0  0  0  0
 21 22  1  0  0  0  0
 22 23  1  0  0  0  0
 23 24  1  0  0  0  0
 24 25  1  0  0  0  0
 25 26  1  0  0  0  0
 26 27  1  0  0  0  0
 27 28  1  0  0  0  0
 28 29  1  0  0  0  0
 29 30  1  0  0  0  0
 30 31  1  0  0  0  0
 21 32  1  6  0  0  0
 22 33  2  0  0  0  0
 24 34  1  1  0  0  0
 27 35  1  1  0  0  0
 25 36  2  0  0  0  0
 28 37  2  0  0  0  0
 29 38  1  0  0  0  0
 31 39  2  0  0  0  0
 31 40  1  0  0  0  0
 42 43  1  0  0  0  0
 43 41  1  0  0  0  0
 44 45  1  0  0  0  0
 45 46  1  0  0  0  0
 45 47  2  0  0  0  0
 43 48  2  0  0  0  0
 42 46  1  6  0  0  0
 40 42  1  0  0  0  0
 49 50  1  0  0  0  0
 50 51  1  0  0  0  0
 51 52  1  0  0  0  0
 52 53  1  0  0  0  0
 41 49  1  0  0  0  0
 49 54  1  6  0  0  0
 50 55  2  0  0  0  0
 30 56  1  6  0  0  0
 53 57  2  0  0  0  0
 58 59  1  0  0  0  0
 59 60  1  0  0  0  0
 59 61  2  0  0  0  0
 17 58  1  6  0  0  0
 63 64  1  0  0  0  0
 64 65  1  0  0  0  0
 65 62  1  0  0  0  0
 62 66  1  0  0  0  0
 63 66  1  0  0  0  0
 53 65  1  0  0  0  0
 67 68  2  0  0  0  0
 62 67  1  1  0  0  0
 69 32  1  0  0  0  0
 70 71  2  0  0  0  0
 71 72  1  0  0  0  0
 72 73  2  0  0  0  0
 73 74  1  0  0  0  0
 74 69  2  0  0  0  0
 72 75  1  0  0  0  0
 69 70  1  0  0  0  0
 34 76  1  0  0  0  0
  2 76  1  0  0  0  0
 76  1  2  0  0  0  0
 35 77  1  0  0  0  0
 56 78  1  0  0  0  0
 80 81  2  0  0  0  0
 81 82  1  0  0  0  0
 82 83  2  0  0  0  0
 83 79  1  0  0  0  0
 78 80  1  0  0  0  0
 78 79  2  0  0  0  0
 82 84  1  0  0  0  0
 54 85  1  0  0  0  0
 85 86  1  0  0  0  0
 85 87  1  0  0  0  0
 67 88  1  0  0  0  0
 89 90  1  0  0  0  0
 89 91  1  0  0  0  0
 91 88  1  6  0  0  0
 91 92  1  0  0  0  0
 93 89  2  0  0  0  0
 52 94  1  1  0  0  0
 94 95  1  0  0  0  0
 95 96  1  0  0  0  0
 96 97  1  0  0  0  0
 97 98  1  0  0  0  0
 98 99  1  0  0  0  0
 99100  1  0  0  0  0
 99101  1  0  0  0  0
M  END
> <DATABASE_ID>
DB00106

> <DATABASE_NAME>
drugbank

> <SMILES>
CC(C)C[C@H](NC(=O)[C@@H](CC(N)=O)NC(=O)[C@H](CC1=CC=C(O)C=C1)N(C)C(=O)[C@H](CO)NC(=O)[C@@H](CC1=CN=CC=C1)NC(=O)[C@@H](CC1=CC=C(Cl)C=C1)NC(=O)[C@@H](CC1=CC2=C(C=CC=C2)C=C1)NC(C)=O)C(=O)N[C@@H](CCCCNC(C)C)C(=O)N1CCC[C@H]1C(=O)N[C@H](C)C(N)=O

> <INCHI_IDENTIFIER>
InChI=1S/C72H95ClN14O14/c1-41(2)32-54(64(93)80-53(17-10-11-30-77-42(3)4)72(101)87-31-13-18-60(87)69(98)78-43(5)63(75)92)81-68(97)58(38-62(74)91)84-70(99)61(37-46-22-27-52(90)28-23-46)86(7)71(100)59(40-88)85-67(96)57(36-48-14-12-29-76-39-48)83-66(95)56(34-45-20-25-51(73)26-21-45)82-65(94)55(79-44(6)89)35-47-19-24-49-15-8-9-16-50(49)33-47/h8-9,12,14-16,19-29,33,39,41-43,53-61,77,88,90H,10-11,13,17-18,30-32,34-38,40H2,1-7H3,(H2,74,91)(H2,75,92)(H,78,98)(H,79,89)(H,80,93)(H,81,97)(H,82,94)(H,83,95)(H,84,99)(H,85,96)/t43-,53+,54+,55-,56-,57-,58-,59+,60+,61+/m1/s1

> <INCHI_KEY>
AIWRTTMUVOZGPW-HSPKUQOVSA-N

> <FORMULA>
C72H95ClN14O14

> <MOLECULAR_WEIGHT>
1416.09

> <EXACT_MASS>
1414.6840715

> <JCHEM_ACCEPTOR_COUNT>
16

> <JCHEM_ATOM_COUNT>
196

> <JCHEM_AVERAGE_POLARIZABILITY>
149.3109061992772

> <JCHEM_BIOAVAILABILITY>
0

> <JCHEM_DONOR_COUNT>
13

> <JCHEM_FORMAL_CHARGE>
0

> <JCHEM_GHOSE_FILTER>
0

> <JCHEM_IUPAC>
(2R)-N-[(1S)-1-{[(2S)-1-[(2S)-2-{[(1R)-1-carbamoylethyl]carbamoyl}pyrrolidin-1-yl]-1-oxo-6-[(propan-2-yl)amino]hexan-2-yl]carbamoyl}-3-methylbutyl]-2-[(2S)-2-[(2S)-2-[(2R)-2-[(2R)-3-(4-chlorophenyl)-2-[(2R)-2-acetamido-3-(naphthalen-2-yl)propanamido]propanamido]-3-(pyridin-3-yl)propanamido]-3-hydroxy-N-methylpropanamido]-3-(4-hydroxyphenyl)propanamido]butanediamide

> <ALOGPS_LOGP>
2.84

> <JCHEM_LOGP>
-0.4628759057641999

> <ALOGPS_LOGS>
-5.58

> <JCHEM_MDDR_LIKE_RULE>
1

> <JCHEM_NUMBER_OF_RINGS>
6

> <JCHEM_PHYSIOLOGICAL_CHARGE>
1

> <JCHEM_PKA>
11.5022950640595

> <JCHEM_PKA_STRONGEST_ACIDIC>
9.472195835886179

> <JCHEM_PKA_STRONGEST_BASIC>
10.661912348587302

> <JCHEM_POLAR_SURFACE_AREA>
424.9799999999999

> <JCHEM_REFRACTIVITY>
373.9098000000001

> <JCHEM_ROTATABLE_BOND_COUNT>
38

> <JCHEM_RULE_OF_FIVE>
0

> <ALOGPS_SOLUBILITY>
3.71e-03 g/l

> <JCHEM_TRADITIONAL_IUPAC>
abarelix

> <JCHEM_VEBER_RULE>
0

> <DRUGBANK_ID>
DB00106

> <SECONDARY_ACCESSION_NUMBERS>
BTD00051; BIOD00051

> <DRUG_GROUPS>
approved; investigational; withdrawn

> <GENERIC_NAME>
Abarelix

> <SYNONYMS>
Abarelix

> <INTERNATIONAL_BRANDS>
Plenaxis

$$$$

  Mrv1909 11291916532D          

 15 16  0  0  0  0            999 V2000
   -0.2451   -0.1498    0.0000 C   0  0  0  0  0  0  0  0  0  0  0  0
   -0.3313   -0.9703    0.0000 C   0  0  0  0  0  0  0  0  0  0  0  0
   -1.1383   -1.1418    0.0000 N   0  0  0  0  0  0  0  0  0  0  0  0
   -1.5508   -0.4274    0.0000 C   0  0  0  0  0  0  0  0  0  0  0  0
   -0.9988    0.1856    0.0000 C   0  0  0  0  0  0  0  0  0  0  0  0
   -1.2537    0.9702    0.0000 C   0  0  0  0  0  0  0  0  0  0  0  0
   -2.3578   -0.2558    0.0000 C   0  0  0  0  0  0  0  0  0  0  0  0
   -2.6127    0.5287    0.0000 C   0  0  0  0  0  0  0  0  0  0  0  0
   -2.0607    1.1418    0.0000 C   0  0  0  0  0  0  0  0  0  0  0  0
    1.8982    1.0876    0.0000 O   0  0  0  0  0  0  0  0  0  0  0  0
    1.8982    0.2626    0.0000 C   0  0  0  0  0  0  0  0  0  0  0  0
    2.6127   -0.1498    0.0000 O   0  0  0  0  0  0  0  0  0  0  0  0
    1.1837   -0.1498    0.0000 C   0  0  1  0  0  0  0  0  0  0  0  0
    1.1837   -0.9748    0.0000 N   0  0  0  0  0  0  0  0  0  0  0  0
    0.4693    0.2626    0.0000 C   0  0  0  0  0  0  0  0  0  0  0  0
  1  2  2  0  0  0  0
  1  5  1  0  0  0  0
  2  3  1  0  0  0  0
  3  4  1  0  0  0  0
  4  5  2  0  0  0  0
  4  7  1  0  0  0  0
  5  6  1  0  0  0  0
  6  9  2  0  0  0  0
  7  8  2  0  0  0  0
  8  9  1  0  0  0  0
 11 10  2  0  0  0  0
 12 11  1  0  0  0  0
 13 11  1  0  0  0  0
 13 14  1  1  0  0  0
 15 13  1  0  0  0  0
  1 15  1  0  0  0  0
M  END
> <DATABASE_ID>
DB00150

> <DATABASE_NAME>
drugbank

> <SMILES>
N[C@@H](CC1=CNC2=C1C=CC=C2)C(O)=O

> <INCHI_IDENTIFIER>
InChI=1S/C11H12N2O2/c12-9(11(14)15)5-7-6-13-10-4-2-1-3-8(7)10/h1-4,6,9,13H,5,12H2,(H,14,15)/t9-/m0/s1

> <INCHI_KEY>
QIVBCDIJIAJPQS-VIFPVBQESA-N

> <FORMULA>
C11H12N2O2

> <MOLECULAR_WEIGHT>
204.2252

> <EXACT_MASS>
204.089877638

> <JCHEM_ACCEPTOR_COUNT>
3

> <JCHEM_ATOM_COUNT>
27

> <JCHEM_AVERAGE_POLARIZABILITY>
21.047414013171778

> <JCHEM_BIOAVAILABILITY>
1

> <JCHEM_DONOR_COUNT>
3

> <JCHEM_FORMAL_CHARGE>
0

> <JCHEM_GHOSE_FILTER>
0

> <JCHEM_IUPAC>
(2S)-2-amino-3-(1H-indol-3-yl)propanoic acid

> <ALOGPS_LOGP>
-1.10

> <JCHEM_LOGP>
-1.0854569138833579

> <ALOGPS_LOGS>
-2.18

> <JCHEM_MDDR_LIKE_RULE>
0

> <JCHEM_NUMBER_OF_RINGS>
2

> <JCHEM_PHYSIOLOGICAL_CHARGE>
0

> <JCHEM_PKA>
16.1565885064574

> <JCHEM_PKA_STRONGEST_ACIDIC>
2.5439286383469866

> <JCHEM_PKA_STRONGEST_BASIC>
9.396082567807317

> <JCHEM_POLAR_SURFACE_AREA>
79.11

> <JCHEM_REFRACTIVITY>
56.20280000000001

> <JCHEM_ROTATABLE_BOND_COUNT>
3

> <JCHEM_RULE_OF_FIVE>
1

> <ALOGPS_SOLUBILITY>
1.36e+00 g/l

> <JCHEM_TRADITIONAL_IUPAC>
palladium(2+) (4S,5S,14R,15R)-10-acetyl-4-(2-carboxyethyl)-15-ethyl-2-(2-methoxy-2-oxoethyl)-5,9,14,19-tetramethyl-20-[(2-sulfoethyl)carbamoyl]-21,22,23,24-tetraazapentacyclo[16.2.1.1^{3,6}.1^{8,11}.1^{13,16}]tetracosa-1,3(24),6,8,10,12,16(22),17,19-nonaene-21,23-diide

> <JCHEM_VEBER_RULE>
0

> <DRUGBANK_ID>
DB00150

> <SECONDARY_ACCESSION_NUMBERS>
NUTR00058; EXPT02064

> <DRUG_GROUPS>
approved; nutraceutical; withdrawn

> <GENERIC_NAME>
Tryptophan

> <SYNONYMS>
(2S)-2-amino-3-(1H-indol-3-yl)propanoic acid; (S)-alpha-Amino-beta-(3-indolyl)-propionic acid; (S)-Tryptophan; (S)-α-amino-1H-indole-3-propanoic acid; L-(-)-Tryptophan; L-(−)-tryptophan; L-Tryptophan; L-β-3-indolylalanine; Triptofano; Trp; Tryptophan; Tryptophane; Tryptophanum; W

> <PRODUCTS>
2.5% Travasol Amino Acid Injection With Electrolytes In 10% Dextrose; 2.5% Travasol Amino Acid Injection With Electrolytes In 10% Dextrose Clinimix; 2.5% Travasol Amino Acid Injection Without Electrolytes In 10% Dextrose Quickmix; 2.5%travasol Amino Acid InJ.W.eleC.W.25%dex; 2.75% Travas. Amino Acid InJ.W.elecw.25%dex; 2.75% Travasol Amino Acid Injection With Electrolytes In 25% Dextrose Quickmix; 2.75% Travasol Amino Acid Injection With Electrolytes In 5% Dextrose Quickmix; 2.75%travasol Amino Acid InJ.W.eleC.W.5%dex.; 20% Prosol; 4.25% Amino Acid Injection Without Electrolytes In 20% Dextrose Quickmix; 4.25% Travasol Amino Acid Injection With Electrolytes In 10% Dextrose; 4.25% Travasol Amino Acid Injection With Electrolytes In 20% Dextrose; 4.25% Travasol Amino Acid Injection With Electrolytes In 20% Dextrose Quickmix; 4.25% Travasol Amino Acid Injection With Electrolytes In 25% Dextrose; 4.25% Travasol Amino Acid Injection With Electrolytes In 5% Dextrose Quickmix; 4.25% Travasol Amino Acid Injection Without Electrlytes In 10% Dextrose; 4.25% Travasol Amino Acid Injection Without Electrolytes In 20% Dextrose; 4.25% Travasol Amino Acid Injection Without Electrolytes In 25% Dextrose; 4.25% Travasol Amino Acid Without Electrolytes In 5% Dextrose Quickmix; 4.25%trav. Amino Acid InJ.W.O.elect.5%dext.; 4.25%travasol Amino Acid InJ.W.elecw.5%dex.; 5% Travasol Amino Acid Injection With Electrolytes In 20% Dextrose; 5% Travasol Amino Acid Injection Without Electrolytes In 20% Dextrose; 5% Travasol Amino Acid Injection Without Electrolytes In 25% Dextrose; 8.5% Freamine III; Aminosyn; Aminosyn 10% W Electrolytes; Aminosyn 3.5% M; Aminosyn 5%; Aminosyn 7%; Aminosyn 8.5%; Aminosyn 8.5% Injection With Electrolytes; Aminosyn HF; Aminosyn II; Aminosyn II 10% With Electrolytes; Aminosyn II 5% Inj; Aminosyn II 7% Injection; Aminosyn II 7% M In 10% Dextrose(dual Chamber); Aminosyn II 7% With 10% Dextrose; Aminosyn II 7% With 50% Dextrose; Aminosyn II 8.5% Injection; Aminosyn II 8.5% M In 20% Dextrose (dual Chamber); Aminosyn II 8.5% With 50% Dextrose; Aminosyn II In Dextrose Injection; Aminosyn II and Dextrose; Aminosyn II in Dextrose; Aminosyn II with Electrolytes; Aminosyn II with Electrolytes in Dextrose with Calcium; Aminosyn RF; Aminosyn RF Injection; Aminosyn Sulfite Free; Aminosyn-PF; Aminosyn-PF 10%; Aminosyn-PF 7%; Apo-tryptophan; Clinimix; Clinimix 2.5% Travasol Aa Without Electrolytes In 10% Dextrose Injec; Clinimix E; Clinisol; Dom-tryptophan; FreAmine HBC; FreAmine III; HepatAmine; Hepatasol; Kabiven; NephrAmine; Nephramine Liq IV; Novamine; Nutrineal Pd4; Olimel 3.3% E; Olimel 4.4%; Olimel 4.4% E; Olimel 5.7%; Olimel 5.7% E; Olimel 7.6%; Olimel 7.6% E; PHL-tryptophan; PMS-tryptophan; Perikabiven; Periolimel 2.5% E; Plenamine; Premasol - sulfite-free (Amino Acid); Primene; Primene 10%; Primene 10%-liq IV; ProSol; ProcalAmine; Quick Mix 2.5% Travasol Aa With Electrolytes With 25% Dextrose Injec; RenAmin; Renamin (amino Acids) Injection; Smofkabiven; Smofkabiven Electrolyte Free; Smofkabiven Extra Nitrogen; Smofkabiven Extra Nitrogen Electrolyte Free; Smofkabiven Peripheral; Synthamin; Teva-tryptophan; Travasol; Travasol Amino Acid Inj 5.5%; Travasol Amino Acid Inj 8.5%; Travasol E; Travasol Inj Without Electrolytes 5.5%; Travasol Inj Without Electrolytes 8.5%; TrophAmine; Tryptan Cap 500mg; Tryptan Tab 1000mg; Tryptan Tab 250mg; Tryptan Tab 500mg; Tryptan Tab 750mg; Vamin 18 Electrolyte-free; Vamin N

> <INTERNATIONAL_BRANDS>
Alti-Tryptophan

$$$$

  Mrv1909 07021918052D          

  9  8  0  0  0  0            999 V2000
    0.3610   -0.4091    0.0000 C   0  0  0  0  0  0  0  0  0  0  0  0
    0.3610   -1.2400    0.0000 C   0  0  0  0  0  0  0  0  0  0  0  0
    0.3610    0.4174    0.0000 C   0  0  0  0  0  0  0  0  0  0  0  0
   -0.3528    0.8309    0.0000 C   0  0  0  0  0  0  0  0  0  0  0  0
   -1.0750    0.4174    0.0000 C   0  0  0  0  0  0  0  0  0  0  0  0
   -1.7889    0.8309    0.0000 Cl  0  0  0  0  0  0  0  0  0  0  0  0
    0.3610    1.2400    0.0000 O   0  0  0  0  0  0  0  0  0  0  0  0
    1.0750    0.8309    0.0000 C   0  0  0  0  0  0  0  0  0  0  0  0
    1.7889    0.4174    0.0000 C   0  0  0  0  0  0  0  0  0  0  0  0
  2  1  3  0  0  0  0
  3  1  1  0  0  0  0
  4  3  1  0  0  0  0
  5  4  2  0  0  0  0
  6  5  1  0  0  0  0
  7  3  1  0  0  0  0
  8  3  1  0  0  0  0
  9  8  1  0  0  0  0
M  END
> <DATABASE_ID>
DB00189

> <DATABASE_NAME>
drugbank

> <SMILES>
CCC(O)(\C=C\Cl)C#C

> <INCHI_IDENTIFIER>
InChI=1S/C7H9ClO/c1-3-7(9,4-2)5-6-8/h1,5-6,9H,4H2,2H3/b6-5+

> <INCHI_KEY>
ZEHYJZXQEQOSON-AATRIKPKSA-N

> <FORMULA>
C7H9ClO

> <MOLECULAR_WEIGHT>
144.6

> <EXACT_MASS>
144.0341926

> <JCHEM_ACCEPTOR_COUNT>
1

> <JCHEM_ATOM_COUNT>
18

> <JCHEM_AVERAGE_POLARIZABILITY>
14.766102360555642

> <JCHEM_BIOAVAILABILITY>
1

> <JCHEM_DONOR_COUNT>
1

> <JCHEM_FORMAL_CHARGE>
0

> <JCHEM_GHOSE_FILTER>
0

> <JCHEM_IUPAC>
(1E)-1-chloro-3-ethylpent-1-en-4-yn-3-ol

> <ALOGPS_LOGP>
1.45

> <JCHEM_LOGP>
1.620819461

> <ALOGPS_LOGS>
-3.00

> <JCHEM_MDDR_LIKE_RULE>
0

> <JCHEM_NUMBER_OF_RINGS>
0

> <JCHEM_PHYSIOLOGICAL_CHARGE>
0

> <JCHEM_PKA_STRONGEST_ACIDIC>
12.877910831568652

> <JCHEM_PKA_STRONGEST_BASIC>
-3.727001802271872

> <JCHEM_POLAR_SURFACE_AREA>
20.23

> <JCHEM_REFRACTIVITY>
38.6382

> <JCHEM_ROTATABLE_BOND_COUNT>
2

> <JCHEM_RULE_OF_FIVE>
1

> <ALOGPS_SOLUBILITY>
1.43e-01 g/l

> <JCHEM_TRADITIONAL_IUPAC>
ethchlorvynol

> <JCHEM_VEBER_RULE>
1

> <DRUGBANK_ID>
DB00189

> <SECONDARY_ACCESSION_NUMBERS>
APRD00958

> <DRUG_GROUPS>
approved; illicit; withdrawn

> <GENERIC_NAME>
Ethchlorvynol

> <SYNONYMS>
1-chloro-3-ethyl-1-penten-4-yn-3-ol; 1-Chloro-3-ethyl-pent-1-en-4-yn-3-ol; 3-(beta-chlorovinyl)-1-pentyn-3-ol; 3-(β-chlorovinyl)-1-pentyn-3-ol; etclorvinol; Ethchlorvynol; ethyl β-chlorovinyl ethynyl carbinol; β-chlorovinyl ethyl ethynyl carbinol

> <PRODUCTS>
Placidyl Cap 200mg; Placidyl Cap 500mg; Placidyl Cap 750mg

> <INTERNATIONAL_BRANDS>
Arvynol; Nostel; Placidyl; Roeridorm; Serenesil

$$$$
197
  Mrv0541 02231214302D          

 31 34  0  0  1  0            999 V2000
   11.4977    0.4914    0.0000 S   0  0  0  0  0  0  0  0  0  0  0  0
    4.9739   -1.4254    0.0000 O   0  0  0  0  0  0  0  0  0  0  0  0
    6.9616   -0.2918    0.0000 O   0  0  0  0  0  0  0  0  0  0  0  0
    2.0929    0.2531    0.0000 O   0  0  0  0  0  0  0  0  0  0  0  0
    9.5379    1.3379    0.0000 O   0  0  0  0  0  0  0  0  0  0  0  0
   12.4273    1.6304    0.0000 O   0  0  0  0  0  0  0  0  0  0  0  0
   10.9595    1.7129    0.0000 N   0  0  0  0  0  0  0  0  0  0  0  0
    5.7214   -1.0015    0.0000 C   0  0  0  0  0  0  0  0  0  0  0  0
    5.7214   -0.1421    0.0000 C   0  0  0  0  0  0  0  0  0  0  0  0
    4.9739    0.2817    0.0000 C   0  0  0  0  0  0  0  0  0  0  0  0
    4.2364   -0.1594    0.0000 C   0  0  0  0  0  0  0  0  0  0  0  0
    4.2364   -0.9844    0.0000 C   0  0  0  0  0  0  0  0  0  0  0  0
    6.5464   -1.0047    0.0000 C   0  0  0  0  0  0  0  0  0  0  0  0
    6.1312   -1.7176    0.0000 C   0  0  0  0  0  0  0  0  0  0  0  0
    3.5219    0.2531    0.0000 C   0  0  0  0  0  0  0  0  0  0  0  0
    3.5219   -1.3969    0.0000 C   0  0  0  0  0  0  0  0  0  0  0  0
    2.8075   -0.9844    0.0000 C   0  0  0  0  0  0  0  0  0  0  0  0
    2.8075   -0.1594    0.0000 C   0  0  0  0  0  0  0  0  0  0  0  0
    3.5219    1.0781    0.0000 C   0  0  0  0  0  0  0  0  0  0  0  0
    3.5219   -2.2219    0.0000 C   0  0  0  0  0  0  0  0  0  0  0  0
    2.0929   -1.3969    0.0000 C   0  0  0  0  0  0  0  0  0  0  0  0
    7.7866   -0.2950    0.0000 C   0  0  0  0  0  0  0  0  0  0  0  0
    9.4366   -0.3014    0.0000 C   0  0  0  0  0  0  0  0  0  0  0  0
    8.1964   -1.0110    0.0000 C   0  0  0  0  0  0  0  0  0  0  0  0
    8.2019    0.4179    0.0000 C   0  0  0  0  0  0  0  0  0  0  0  0
   10.2616   -0.3046    0.0000 C   0  0  0  0  0  0  0  0  0  0  0  0
   10.6769    0.4083    0.0000 C   0  0  0  0  0  0  0  0  0  0  0  0
    9.0214   -1.0143    0.0000 C   0  0  0  0  0  0  0  0  0  0  0  0
    9.0269    0.4146    0.0000 C   0  0  0  0  0  0  0  0  0  0  0  0
   10.3442    1.1632    0.0000 C   0  0  0  0  0  0  0  0  0  0  0  0
   11.6723    1.2977    0.0000 C   0  0  0  0  0  0  0  0  0  0  0  0
  1 27  1  0  0  0  0
  1 31  1  0  0  0  0
  2  8  1  0  0  0  0
  2 12  1  0  0  0  0
  3 13  1  0  0  0  0
  3 22  1  0  0  0  0
  4 18  1  0  0  0  0
  5 30  2  0  0  0  0
  6 31  2  0  0  0  0
  7 30  1  0  0  0  0
  7 31  1  0  0  0  0
  8  9  1  0  0  0  0
  8 13  1  0  0  0  0
  8 14  1  0  0  0  0
  9 10  1  0  0  0  0
 10 11  1  0  0  0  0
 11 12  2  0  0  0  0
 11 15  1  0  0  0  0
 12 16  1  0  0  0  0
 15 18  2  0  0  0  0
 15 19  1  0  0  0  0
 16 17  2  0  0  0  0
 16 20  1  0  0  0  0
 17 18  1  0  0  0  0
 17 21  1  0  0  0  0
 22 24  2  0  0  0  0
 22 25  1  0  0  0  0
 23 26  1  0  0  0  0
 23 28  2  0  0  0  0
 23 29  1  0  0  0  0
 24 28  1  0  0  0  0
 25 29  2  0  0  0  0
 26 27  1  0  0  0  0
 27 30  1  0  0  0  0
M  END
> <DATABASE_ID>
DB00197

> <DATABASE_NAME>
drugbank

> <SMILES>
CC1=C(C)C2=C(CCC(C)(COC3=CC=C(CC4SC(=O)NC4=O)C=C3)O2)C(C)=C1O

> <INCHI_IDENTIFIER>
InChI=1S/C24H27NO5S/c1-13-14(2)21-18(15(3)20(13)26)9-10-24(4,30-21)12-29-17-7-5-16(6-8-17)11-19-22(27)25-23(28)31-19/h5-8,19,26H,9-12H2,1-4H3,(H,25,27,28)

> <INCHI_KEY>
GXPHKUHSUJUWKP-UHFFFAOYSA-N

> <FORMULA>
C24H27NO5S

> <MOLECULAR_WEIGHT>
441.54

> <EXACT_MASS>
441.160993669

> <JCHEM_ACCEPTOR_COUNT>
5

> <JCHEM_AVERAGE_POLARIZABILITY>
47.07923558471997

> <JCHEM_BIOAVAILABILITY>
1

> <JCHEM_DONOR_COUNT>
2

> <JCHEM_FORMAL_CHARGE>
0

> <JCHEM_GHOSE_FILTER>
1

> <JCHEM_IUPAC>
5-({4-[(6-hydroxy-2,5,7,8-tetramethyl-3,4-dihydro-2H-1-benzopyran-2-yl)methoxy]phenyl}methyl)-1,3-thiazolidine-2,4-dione

> <ALOGPS_LOGP>
4.16

> <JCHEM_LOGP>
5.495204457666666

> <ALOGPS_LOGS>
-5.56

> <JCHEM_MDDR_LIKE_RULE>
0

> <JCHEM_NUMBER_OF_RINGS>
4

> <JCHEM_PHYSIOLOGICAL_CHARGE>
-1

> <JCHEM_PKA>
10.79429140046759

> <JCHEM_PKA_STRONGEST_ACIDIC>
6.61355777563998

> <JCHEM_PKA_STRONGEST_BASIC>
-4.558161720453246

> <JCHEM_POLAR_SURFACE_AREA>
84.86

> <JCHEM_REFRACTIVITY>
120.9914

> <JCHEM_ROTATABLE_BOND_COUNT>
5

> <JCHEM_RULE_OF_FIVE>
0

> <ALOGPS_SOLUBILITY>
1.21e-03 g/l

> <JCHEM_TRADITIONAL_IUPAC>
troglitazone

> <JCHEM_VEBER_RULE>
0

> <DRUGBANK_ID>
DB00197

> <SECONDARY_ACCESSION_NUMBERS>
APRD00488

> <DRUG_GROUPS>
approved; investigational; withdrawn

> <GENERIC_NAME>
Troglitazone

> <SYNONYMS>
Troglitazona; Troglitazone

> <INTERNATIONAL_BRANDS>
Noscal; Resulin; Rezulin; Romozin

$$$$
232
  Mrv0541 02231214322D          

 20 21  0  0  1  0            999 V2000
    1.6498    1.7106    0.0000 Cl  0  0  0  0  0  0  0  0  0  0  0  0
    5.9905    0.9057    0.0000 Cl  0  0  0  0  0  0  0  0  0  0  0  0
    3.0786   -0.7641    0.0000 S   0  0  0  0  0  0  0  0  0  0  0  0
    5.9905   -0.7840    0.0000 S   0  0  0  0  0  0  0  0  0  0  0  0
    3.4910   -1.4784    0.0000 O   0  0  0  0  0  0  0  0  0  0  0  0
    2.6661   -1.4784    0.0000 O   0  0  0  0  0  0  0  0  0  0  0  0
    6.4056   -0.0712    0.0000 O   0  0  0  0  0  0  0  0  0  0  0  0
    5.5752   -1.4968    0.0000 O   0  0  0  0  0  0  0  0  0  0  0  0
    2.3641   -0.3517    0.0000 N   0  0  0  0  0  0  0  0  0  0  0  0
    3.0786    0.8857    0.0000 N   0  0  0  0  0  0  0  0  0  0  0  0
    6.7033   -1.1991    0.0000 N   0  0  0  0  0  0  0  0  0  0  0  0
    2.3641    0.4732    0.0000 C   0  0  0  0  0  0  0  0  0  0  0  0
    3.7929   -0.3517    0.0000 C   0  0  0  0  0  0  0  0  0  0  0  0
    3.7929    0.4732    0.0000 C   0  0  0  0  0  0  0  0  0  0  0  0
    1.6498    0.8857    0.0000 C   0  0  0  0  0  0  0  0  0  0  0  0
    4.5303   -0.7926    0.0000 C   0  0  0  0  0  0  0  0  0  0  0  0
    1.6498   -0.7641    0.0000 C   0  0  0  0  0  0  0  0  0  0  0  0
    4.5303    0.9143    0.0000 C   0  0  0  0  0  0  0  0  0  0  0  0
    5.2777   -0.3689    0.0000 C   0  0  0  0  0  0  0  0  0  0  0  0
    5.2777    0.4904    0.0000 C   0  0  0  0  0  0  0  0  0  0  0  0
  1 15  1  0  0  0  0
  2 20  1  0  0  0  0
  3  5  2  0  0  0  0
  3  6  2  0  0  0  0
  3  9  1  0  0  0  0
  3 13  1  0  0  0  0
  4  7  2  0  0  0  0
  4  8  2  0  0  0  0
  4 11  1  0  0  0  0
  4 19  1  0  0  0  0
  9 12  1  0  0  0  0
  9 17  1  0  0  0  0
 10 12  1  0  0  0  0
 10 14  1  0  0  0  0
 12 15  1  0  0  0  0
 13 14  1  0  0  0  0
 13 16  2  0  0  0  0
 14 18  2  0  0  0  0
 16 19  1  0  0  0  0
 18 20  1  0  0  0  0
 19 20  2  0  0  0  0
M  END
> <DATABASE_ID>
DB00232

> <DATABASE_NAME>
drugbank

> <SMILES>
CN1C(CCl)NC2=CC(Cl)=C(C=C2S1(=O)=O)S(N)(=O)=O

> <INCHI_IDENTIFIER>
InChI=1S/C9H11Cl2N3O4S2/c1-14-9(4-10)13-6-2-5(11)7(19(12,15)16)3-8(6)20(14,17)18/h2-3,9,13H,4H2,1H3,(H2,12,15,16)

> <INCHI_KEY>
CESYKOGBSMNBPD-UHFFFAOYSA-N

> <FORMULA>
C9H11Cl2N3O4S2

> <MOLECULAR_WEIGHT>
360.237

> <EXACT_MASS>
358.956802649

> <JCHEM_ACCEPTOR_COUNT>
5

> <JCHEM_AVERAGE_POLARIZABILITY>
31.653761130306084

> <JCHEM_BIOAVAILABILITY>
1

> <JCHEM_DONOR_COUNT>
2

> <JCHEM_FORMAL_CHARGE>
0

> <JCHEM_GHOSE_FILTER>
1

> <JCHEM_IUPAC>
6-chloro-3-(chloromethyl)-2-methyl-1,1-dioxo-3,4-dihydro-2H-1λ⁶,2,4-benzothiadiazine-7-sulfonamide

> <ALOGPS_LOGP>
0.93

> <JCHEM_LOGP>
0.5283252613333335

> <ALOGPS_LOGS>
-2.64

> <JCHEM_MDDR_LIKE_RULE>
0

> <JCHEM_NUMBER_OF_RINGS>
2

> <JCHEM_PHYSIOLOGICAL_CHARGE>
0

> <JCHEM_PKA>
10.539645568265414

> <JCHEM_PKA_STRONGEST_ACIDIC>
9.29168730608368

> <JCHEM_PKA_STRONGEST_BASIC>
-3.395929672638892

> <JCHEM_POLAR_SURFACE_AREA>
109.57

> <JCHEM_REFRACTIVITY>
77.27770000000002

> <JCHEM_ROTATABLE_BOND_COUNT>
2

> <JCHEM_RULE_OF_FIVE>
1

> <ALOGPS_SOLUBILITY>
8.24e-01 g/l

> <JCHEM_TRADITIONAL_IUPAC>
methyclothiazide

> <JCHEM_VEBER_RULE>
0

> <DRUGBANK_ID>
DB00232

> <SECONDARY_ACCESSION_NUMBERS>
APRD01104

> <DRUG_GROUPS>
withdrawn

> <GENERIC_NAME>
Methyclothiazide

> <SYNONYMS>
Methyclothiazide

> <PRODUCTS>
Duretic 5mg; Enduronyl; Enduronyl Forte; Methyclothiazide

> <INTERNATIONAL_BRANDS>
Aquatensen; Duretic; Enduron

$$$$
269
  Mrv0541 02231214332D          

 27 29  0  0  0  0            999 V2000
    1.6500   -0.2063    0.0000 Cl  0  0  0  0  0  0  0  0  0  0  0  0
    5.9370    1.4438    0.0000 O   0  0  0  0  0  0  0  0  0  0  0  0
    3.0791   -3.5063    0.0000 O   0  0  0  0  0  0  0  0  0  0  0  0
    2.3645    3.5063    0.0000 O   0  0  0  0  0  0  0  0  0  0  0  0
    3.0791   -0.2063    0.0000 C   0  0  0  0  0  0  0  0  0  0  0  0
    3.7935    0.2063    0.0000 C   0  0  0  0  0  0  0  0  0  0  0  0
    3.0791   -1.0313    0.0000 C   0  0  0  0  0  0  0  0  0  0  0  0
    2.3645    0.2063    0.0000 C   0  0  0  0  0  0  0  0  0  0  0  0
    2.3645    1.0313    0.0000 C   0  0  0  0  0  0  0  0  0  0  0  0
    3.7935    1.0313    0.0000 C   0  0  0  0  0  0  0  0  0  0  0  0
    3.7935   -1.4438    0.0000 C   0  0  0  0  0  0  0  0  0  0  0  0
    4.5080   -0.2063    0.0000 C   0  0  0  0  0  0  0  0  0  0  0  0
    2.3645   -1.4438    0.0000 C   0  0  0  0  0  0  0  0  0  0  0  0
    4.5080    1.4438    0.0000 C   0  0  0  0  0  0  0  0  0  0  0  0
    3.7935   -2.2688    0.0000 C   0  0  0  0  0  0  0  0  0  0  0  0
    5.2224    0.2063    0.0000 C   0  0  0  0  0  0  0  0  0  0  0  0
    2.3645   -2.2688    0.0000 C   0  0  0  0  0  0  0  0  0  0  0  0
    1.6500    1.4438    0.0000 C   0  0  0  0  0  0  0  0  0  0  0  0
    3.0791    1.4438    0.0000 C   0  0  0  0  0  0  0  0  0  0  0  0
    5.2224    1.0313    0.0000 C   0  0  0  0  0  0  0  0  0  0  0  0
    3.0791   -2.6813    0.0000 C   0  0  0  0  0  0  0  0  0  0  0  0
    1.6500    2.2688    0.0000 C   0  0  0  0  0  0  0  0  0  0  0  0
    3.0791    2.2688    0.0000 C   0  0  0  0  0  0  0  0  0  0  0  0
    2.3645    2.6813    0.0000 C   0  0  0  0  0  0  0  0  0  0  0  0
    6.6515    1.0313    0.0000 C   0  0  0  0  0  0  0  0  0  0  0  0
    2.3645   -3.9188    0.0000 C   0  0  0  0  0  0  0  0  0  0  0  0
    1.6500    3.9188    0.0000 C   0  0  0  0  0  0  0  0  0  0  0  0
  1  8  1  0  0  0  0
  2 20  1  0  0  0  0
  2 25  1  0  0  0  0
  3 21  1  0  0  0  0
  3 26  1  0  0  0  0
  4 24  1  0  0  0  0
  4 27  1  0  0  0  0
  5  6  1  0  0  0  0
  5  7  1  0  0  0  0
  5  8  2  0  0  0  0
  6 10  2  0  0  0  0
  6 12  1  0  0  0  0
  7 11  2  0  0  0  0
  7 13  1  0  0  0  0
  8  9  1  0  0  0  0
  9 18  2  0  0  0  0
  9 19  1  0  0  0  0
 10 14  1  0  0  0  0
 11 15  1  0  0  0  0
 12 16  2  0  0  0  0
 13 17  2  0  0  0  0
 14 20  2  0  0  0  0
 15 21  2  0  0  0  0
 16 20  1  0  0  0  0
 17 21  1  0  0  0  0
 18 22  1  0  0  0  0
 19 23  2  0  0  0  0
 22 24  2  0  0  0  0
 23 24  1  0  0  0  0
M  END
> <DATABASE_ID>
DB00269

> <DATABASE_NAME>
drugbank

> <SMILES>
COC1=CC=C(C=C1)C(Cl)=C(C1=CC=C(OC)C=C1)C1=CC=C(OC)C=C1

> <INCHI_IDENTIFIER>
InChI=1S/C23H21ClO3/c1-25-19-10-4-16(5-11-19)22(17-6-12-20(26-2)13-7-17)23(24)18-8-14-21(27-3)15-9-18/h4-15H,1-3H3

> <INCHI_KEY>
BFPSDSIWYFKGBC-UHFFFAOYSA-N

> <FORMULA>
C23H21ClO3

> <MOLECULAR_WEIGHT>
380.864

> <EXACT_MASS>
380.117922245

> <JCHEM_ACCEPTOR_COUNT>
3

> <JCHEM_AVERAGE_POLARIZABILITY>
41.6042539099155

> <JCHEM_BIOAVAILABILITY>
1

> <JCHEM_DONOR_COUNT>
0

> <JCHEM_FORMAL_CHARGE>
0

> <JCHEM_GHOSE_FILTER>
1

> <JCHEM_IUPAC>
1-[1-chloro-2,2-bis(4-methoxyphenyl)ethenyl]-4-methoxybenzene

> <ALOGPS_LOGP>
5.95

> <JCHEM_LOGP>
5.427334731

> <ALOGPS_LOGS>
-6.28

> <JCHEM_MDDR_LIKE_RULE>
1

> <JCHEM_NUMBER_OF_RINGS>
3

> <JCHEM_PHYSIOLOGICAL_CHARGE>
0

> <JCHEM_PKA_STRONGEST_BASIC>
-4.35168051124204

> <JCHEM_POLAR_SURFACE_AREA>
27.69

> <JCHEM_REFRACTIVITY>
119.17130000000003

> <JCHEM_ROTATABLE_BOND_COUNT>
6

> <JCHEM_RULE_OF_FIVE>
0

> <ALOGPS_SOLUBILITY>
1.99e-04 g/l

> <JCHEM_TRADITIONAL_IUPAC>
chlorotrianisene

> <JCHEM_VEBER_RULE>
1

> <DRUGBANK_ID>
DB00269

> <SECONDARY_ACCESSION_NUMBERS>
APRD00715

> <DRUG_GROUPS>
investigational; withdrawn

> <GENERIC_NAME>
Chlorotrianisene

> <SYNONYMS>
Chloortrianisestrol; Chlorestrolo; Chlorotrianisene; Chlorotrianisenum; Chlorotrianisine; Chlorotrianizen; Chlortrianisen; Chlortrianisestrol; Chlortrianisoestrolum; Chlortrianizen; Clorotrianiseno

> <INTERNATIONAL_BRANDS>
Merbentul; Tace; Tace FN; Triagen

$$$$
311
  Mrv0541 02231214352D          

 16 17  0  0  0  0            999 V2000
    7.3097    0.0000    0.0000 S   0  0  0  0  0  0  0  0  0  0  0  0
    6.0031    0.6639    0.0000 S   0  0  0  0  0  0  0  0  0  0  0  0
    3.0791    0.8250    0.0000 O   0  0  0  0  0  0  0  0  0  0  0  0
    7.3097    0.8250    0.0000 O   0  0  0  0  0  0  0  0  0  0  0  0
    7.3097   -0.8250    0.0000 O   0  0  0  0  0  0  0  0  0  0  0  0
    6.0031   -0.6639    0.0000 N   0  0  0  0  0  0  0  0  0  0  0  0
    8.1347    0.0000    0.0000 N   0  0  0  0  0  0  0  0  0  0  0  0
    5.2224    0.4125    0.0000 C   0  0  0  0  0  0  0  0  0  0  0  0
    5.2224   -0.4125    0.0000 C   0  0  0  0  0  0  0  0  0  0  0  0
    6.4846    0.0000    0.0000 C   0  0  0  0  0  0  0  0  0  0  0  0
    4.5080    0.8250    0.0000 C   0  0  0  0  0  0  0  0  0  0  0  0
    3.7935    0.4125    0.0000 C   0  0  0  0  0  0  0  0  0  0  0  0
    4.5080   -0.8250    0.0000 C   0  0  0  0  0  0  0  0  0  0  0  0
    3.7935   -0.4125    0.0000 C   0  0  0  0  0  0  0  0  0  0  0  0
    2.3645    0.4125    0.0000 C   0  0  0  0  0  0  0  0  0  0  0  0
    1.6500    0.8250    0.0000 C   0  0  0  0  0  0  0  0  0  0  0  0
  1  4  2  0  0  0  0
  1  5  2  0  0  0  0
  1  7  1  0  0  0  0
  1 10  1  0  0  0  0
  2  8  1  0  0  0  0
  2 10  1  0  0  0  0
  3 12  1  0  0  0  0
  3 15  1  0  0  0  0
  6  9  1  0  0  0  0
  6 10  2  0  0  0  0
  8  9  2  0  0  0  0
  8 11  1  0  0  0  0
  9 13  1  0  0  0  0
 11 12  2  0  0  0  0
 12 14  1  0  0  0  0
 13 14  2  0  0  0  0
 15 16  1  0  0  0  0
M  END
> <DATABASE_ID>
DB00311

> <DATABASE_NAME>
drugbank

> <SMILES>
CCOC1=CC2=C(C=C1)N=C(S2)S(N)(=O)=O

> <INCHI_IDENTIFIER>
InChI=1S/C9H10N2O3S2/c1-2-14-6-3-4-7-8(5-6)15-9(11-7)16(10,12)13/h3-5H,2H2,1H3,(H2,10,12,13)

> <INCHI_KEY>
OUZWUKMCLIBBOG-UHFFFAOYSA-N

> <FORMULA>
C9H10N2O3S2

> <MOLECULAR_WEIGHT>
258.317

> <EXACT_MASS>
258.013283576

> <JCHEM_ACCEPTOR_COUNT>
4

> <JCHEM_AVERAGE_POLARIZABILITY>
25.269498813380597

> <JCHEM_BIOAVAILABILITY>
1

> <JCHEM_DONOR_COUNT>
1

> <JCHEM_FORMAL_CHARGE>
0

> <JCHEM_GHOSE_FILTER>
1

> <JCHEM_IUPAC>
6-ethoxy-1,3-benzothiazole-2-sulfonamide

> <ALOGPS_LOGP>
1.87

> <JCHEM_LOGP>
1.6028892289999999

> <ALOGPS_LOGS>
-2.57

> <JCHEM_MDDR_LIKE_RULE>
0

> <JCHEM_NUMBER_OF_RINGS>
2

> <JCHEM_PHYSIOLOGICAL_CHARGE>
0

> <JCHEM_PKA_STRONGEST_ACIDIC>
7.511271617325915

> <JCHEM_PKA_STRONGEST_BASIC>
-1.9316959203012112

> <JCHEM_POLAR_SURFACE_AREA>
82.28

> <JCHEM_REFRACTIVITY>
59.97170000000001

> <JCHEM_ROTATABLE_BOND_COUNT>
3

> <JCHEM_RULE_OF_FIVE>
1

> <ALOGPS_SOLUBILITY>
6.88e-01 g/l

> <JCHEM_TRADITIONAL_IUPAC>
ethoxzolamide

> <JCHEM_VEBER_RULE>
0

> <DRUGBANK_ID>
DB00311

> <SECONDARY_ACCESSION_NUMBERS>
APRD00732; DB07727

> <DRUG_GROUPS>
withdrawn

> <GENERIC_NAME>
Ethoxzolamide

> <SYNONYMS>
6-Ethoxy-1,3-benzothiazole-2-sulfonamide; Ethoxazolamide; Ethoxyzolamide

> <INTERNATIONAL_BRANDS>
Cardrase; Ethamide

$$$$
323
  Mrv0541 02231214362D          

 20 21  0  0  0  0            999 V2000
    5.6655    0.6188    0.0000 O   0  0  0  0  0  0  0  0  0  0  0  0
    2.0930    0.2063    0.0000 O   0  0  0  0  0  0  0  0  0  0  0  0
    2.0930    1.8563    0.0000 O   0  0  0  0  0  0  0  0  0  0  0  0
    4.2365    3.0938    0.0000 O   0  5  0  0  0  0  0  0  0  0  0  0
    2.8075    3.0938    0.0000 O   0  0  0  0  0  0  0  0  0  0  0  0
    3.5220    2.6813    0.0000 N   0  3  0  0  0  0  0  0  0  0  0  0
    4.2365    0.6188    0.0000 C   0  0  0  0  0  0  0  0  0  0  0  0
    4.9509   -0.6188    0.0000 C   0  0  0  0  0  0  0  0  0  0  0  0
    4.9509    0.2063    0.0000 C   0  0  0  0  0  0  0  0  0  0  0  0
    4.2365    1.4438    0.0000 C   0  0  0  0  0  0  0  0  0  0  0  0
    3.5220    0.2063    0.0000 C   0  0  0  0  0  0  0  0  0  0  0  0
    3.5220    1.8563    0.0000 C   0  0  0  0  0  0  0  0  0  0  0  0
    2.8075    0.6188    0.0000 C   0  0  0  0  0  0  0  0  0  0  0  0
    4.9509   -2.2688    0.0000 C   0  0  0  0  0  0  0  0  0  0  0  0
    4.2365   -1.0313    0.0000 C   0  0  0  0  0  0  0  0  0  0  0  0
    5.6655   -1.0313    0.0000 C   0  0  0  0  0  0  0  0  0  0  0  0
    2.8075    1.4438    0.0000 C   0  0  0  0  0  0  0  0  0  0  0  0
    4.2365   -1.8563    0.0000 C   0  0  0  0  0  0  0  0  0  0  0  0
    5.6655   -1.8563    0.0000 C   0  0  0  0  0  0  0  0  0  0  0  0
    4.9509   -3.0938    0.0000 C   0  0  0  0  0  0  0  0  0  0  0  0
  1  9  2  0  0  0  0
  2 13  1  0  0  0  0
  3 17  1  0  0  0  0
  4  6  1  0  0  0  0
  5  6  2  0  0  0  0
  6 12  1  0  0  0  0
  7  9  1  0  0  0  0
  7 10  2  0  0  0  0
  7 11  1  0  0  0  0
  8  9  1  0  0  0  0
  8 15  2  0  0  0  0
  8 16  1  0  0  0  0
 10 12  1  0  0  0  0
 11 13  2  0  0  0  0
 12 17  2  0  0  0  0
 13 17  1  0  0  0  0
 14 18  2  0  0  0  0
 14 19  1  0  0  0  0
 14 20  1  0  0  0  0
 15 18  1  0  0  0  0
 16 19  2  0  0  0  0
M  CHG  2   4  -1   6   1
M  END
> <DATABASE_ID>
DB00323

> <DATABASE_NAME>
drugbank

> <SMILES>
CC1=CC=C(C=C1)C(=O)C1=CC(=C(O)C(O)=C1)[N+]([O-])=O

> <INCHI_IDENTIFIER>
InChI=1S/C14H11NO5/c1-8-2-4-9(5-3-8)13(17)10-6-11(15(19)20)14(18)12(16)7-10/h2-7,16,18H,1H3

> <INCHI_KEY>
MIQPIUSUKVNLNT-UHFFFAOYSA-N

> <FORMULA>
C14H11NO5

> <MOLECULAR_WEIGHT>
273.2408

> <EXACT_MASS>
273.063722467

> <JCHEM_ACCEPTOR_COUNT>
5

> <JCHEM_AVERAGE_POLARIZABILITY>
26.436268450204295

> <JCHEM_BIOAVAILABILITY>
1

> <JCHEM_DONOR_COUNT>
2

> <JCHEM_FORMAL_CHARGE>
0

> <JCHEM_GHOSE_FILTER>
1

> <JCHEM_IUPAC>
5-(4-methylbenzoyl)-3-nitrobenzene-1,2-diol

> <ALOGPS_LOGP>
2.63

> <JCHEM_LOGP>
3.278873788666666

> <ALOGPS_LOGS>
-3.68

> <JCHEM_MDDR_LIKE_RULE>
0

> <JCHEM_NUMBER_OF_RINGS>
2

> <JCHEM_PHYSIOLOGICAL_CHARGE>
-1

> <JCHEM_PKA>
10.630671159623375

> <JCHEM_PKA_STRONGEST_ACIDIC>
5.167245045370144

> <JCHEM_PKA_STRONGEST_BASIC>
-6.417683701145976

> <JCHEM_POLAR_SURFACE_AREA>
103.35

> <JCHEM_REFRACTIVITY>
72.96120000000002

> <JCHEM_ROTATABLE_BOND_COUNT>
3

> <JCHEM_RULE_OF_FIVE>
1

> <ALOGPS_SOLUBILITY>
5.69e-02 g/l

> <JCHEM_TRADITIONAL_IUPAC>
tolcapone

> <JCHEM_VEBER_RULE>
0

> <DRUGBANK_ID>
DB00323

> <SECONDARY_ACCESSION_NUMBERS>
APRD00445

> <DRUG_GROUPS>
approved; withdrawn

> <GENERIC_NAME>
Tolcapone

> <SYNONYMS>
(3,4-dihydroxy-5-nitrophenyl)(4-methylphenyl)methanone; 3,4-dihydroxy-4'-methyl-5-nitrobenzophenone; 3,4-dihydroxy-5-nitro-4'-methylbenzophenone; 4'-methyl-3,4-dihydroxy-5-nitrobenzophenone; Tolcapon; Tolcapona; Tolcapone; Tolcaponum

> <PRODUCTS>
Tasmar; Tolcapone

> <INTERNATIONAL_BRANDS>
Sen De Ning

$$$$
       
  Mrv1652309201718072D          

 35 38  0  0  0  0            999 V2000
   28.9897  -19.5151    0.0000 C   0  0  0  0  0  0  0  0  0  0  0  0
   28.9897  -20.3516    0.0000 C   0  0  0  0  0  0  0  0  0  0  0  0
   29.7007  -20.7698    0.0000 C   0  0  0  0  0  0  0  0  0  0  0  0
   30.4535  -20.3516    0.0000 C   0  0  0  0  0  0  0  0  0  0  0  0
   30.4535  -19.5151    0.0000 C   0  0  0  0  0  0  0  0  0  0  0  0
   29.7007  -19.0969    0.0000 C   0  0  0  0  0  0  0  0  0  0  0  0
   31.8755  -20.3516    0.0000 C   0  0  0  0  0  0  0  0  0  0  0  0
   31.8755  -19.5151    0.0000 C   0  0  0  0  0  0  0  0  0  0  0  0
   31.1646  -19.0969    0.0000 C   0  0  0  0  0  0  0  0  0  0  0  0
   32.6284  -20.7698    0.0000 C   0  0  0  0  0  0  0  0  0  0  0  0
   33.3394  -20.3516    0.0000 C   0  0  0  0  0  0  0  0  0  0  0  0
   33.3394  -19.5151    0.0000 C   0  0  0  0  0  0  0  0  0  0  0  0
   32.6284  -19.0969    0.0000 C   0  0  0  0  0  0  0  0  0  0  0  0
   31.1646  -18.2604    0.0000 C   0  0  0  0  0  0  0  0  0  0  0  0
   31.8755  -17.8421    0.0000 C   0  0  0  0  0  0  0  0  0  0  0  0
   31.8755  -17.0056    0.0000 C   0  0  0  0  0  0  0  0  0  0  0  0
   31.1646  -16.5873    0.0000 N   0  0  0  0  0  0  0  0  0  0  0  0
   30.4535  -17.0056    0.0000 C   0  0  0  0  0  0  0  0  0  0  0  0
   30.4535  -17.8421    0.0000 C   0  0  0  0  0  0  0  0  0  0  0  0
   30.4535  -18.6786    0.0000 O   0  0  0  0  0  0  0  0  0  0  0  0
   31.1646  -15.7509    0.0000 C   0  0  0  0  0  0  0  0  0  0  0  0
   31.9174  -15.3326    0.0000 C   0  0  0  0  0  0  0  0  0  0  0  0
   32.6284  -15.7509    0.0000 C   0  0  0  0  0  0  0  0  0  0  0  0
   33.3394  -15.3326    0.0000 C   0  0  0  0  0  0  0  0  0  0  0  0
   34.0505  -15.7509    0.0000 C   0  0  0  0  0  0  0  0  0  0  0  0
   33.3394  -14.4962    0.0000 O   0  0  0  0  0  0  0  0  0  0  0  0
   34.0505  -16.5873    0.0000 C   0  0  0  0  0  0  0  0  0  0  0  0
   34.7614  -17.0056    0.0000 C   0  0  0  0  0  0  0  0  0  0  0  0
   35.4725  -16.5873    0.0000 C   0  0  0  0  0  0  0  0  0  0  0  0
   35.4725  -15.7509    0.0000 C   0  0  0  0  0  0  0  0  0  0  0  0
   34.7614  -15.3326    0.0000 C   0  0  0  0  0  0  0  0  0  0  0  0
   36.2253  -17.0056    0.0000 C   0  0  0  0  0  0  0  0  0  0  0  0
   36.9363  -17.4238    0.0000 C   0  0  0  0  0  0  0  0  0  0  0  0
   35.8070  -17.7585    0.0000 C   0  0  0  0  0  0  0  0  0  0  0  0
   36.6435  -16.2946    0.0000 C   0  0  0  0  0  0  0  0  0  0  0  0
  1  2  2  0  0  0  0
  2  3  1  0  0  0  0
  3  4  2  0  0  0  0
  4  5  1  0  0  0  0
  5  6  2  0  0  0  0
  1  6  1  0  0  0  0
  7  8  1  0  0  0  0
  8  9  1  0  0  0  0
  5  9  1  0  0  0  0
  7 10  2  0  0  0  0
 10 11  1  0  0  0  0
 11 12  2  0  0  0  0
 12 13  1  0  0  0  0
  8 13  2  0  0  0  0
  9 14  1  0  0  0  0
 14 15  1  0  0  0  0
 15 16  1  0  0  0  0
 16 17  1  0  0  0  0
 17 18  1  0  0  0  0
 18 19  1  0  0  0  0
 14 19  1  0  0  0  0
  9 20  1  0  0  0  0
 17 21  1  0  0  0  0
 21 22  1  0  0  0  0
 22 23  1  0  0  0  0
 23 24  1  0  0  0  0
 24 25  1  0  0  0  0
 24 26  1  0  0  0  0
 25 27  2  0  0  0  0
 27 28  1  0  0  0  0
 28 29  2  0  0  0  0
 29 30  1  0  0  0  0
 30 31  2  0  0  0  0
 25 31  1  0  0  0  0
 29 32  1  0  0  0  0
 32 33  1  0  0  0  0
 32 34  1  0  0  0  0
 32 35  1  0  0  0  0
M  END
> <DATABASE_ID>
DB00342

> <DATABASE_NAME>
drugbank

> <SMILES>
CC(C)(C)C1=CC=C(C=C1)C(O)CCCN1CCC(CC1)C(O)(C1=CC=CC=C1)C1=CC=CC=C1

> <INCHI_IDENTIFIER>
InChI=1S/C32H41NO2/c1-31(2,3)26-18-16-25(17-19-26)30(34)15-10-22-33-23-20-29(21-24-33)32(35,27-11-6-4-7-12-27)28-13-8-5-9-14-28/h4-9,11-14,16-19,29-30,34-35H,10,15,20-24H2,1-3H3

> <INCHI_KEY>
GUGOEEXESWIERI-UHFFFAOYSA-N

> <FORMULA>
C32H41NO2

> <MOLECULAR_WEIGHT>
471.6734

> <EXACT_MASS>
471.313729561

> <JCHEM_ACCEPTOR_COUNT>
3

> <JCHEM_ATOM_COUNT>
76

> <JCHEM_AVERAGE_POLARIZABILITY>
56.45178022243013

> <JCHEM_BIOAVAILABILITY>
1

> <JCHEM_DONOR_COUNT>
2

> <JCHEM_FORMAL_CHARGE>
0

> <JCHEM_GHOSE_FILTER>
0

> <JCHEM_IUPAC>
1-(4-tert-butylphenyl)-4-[4-(hydroxydiphenylmethyl)piperidin-1-yl]butan-1-ol

> <ALOGPS_LOGP>
5.89

> <JCHEM_LOGP>
6.4791090759999985

> <ALOGPS_LOGS>
-6.01

> <JCHEM_MDDR_LIKE_RULE>
1

> <JCHEM_NUMBER_OF_RINGS>
4

> <JCHEM_PHYSIOLOGICAL_CHARGE>
1

> <JCHEM_PKA>
14.524962934427215

> <JCHEM_PKA_STRONGEST_ACIDIC>
13.197068104137273

> <JCHEM_PKA_STRONGEST_BASIC>
9.02298591531735

> <JCHEM_POLAR_SURFACE_AREA>
43.7

> <JCHEM_REFRACTIVITY>
146.26740000000007

> <JCHEM_ROTATABLE_BOND_COUNT>
9

> <JCHEM_RULE_OF_FIVE>
0

> <ALOGPS_SOLUBILITY>
4.58e-04 g/l

> <JCHEM_TRADITIONAL_IUPAC>
terfenadine

> <JCHEM_VEBER_RULE>
0

> <DRUGBANK_ID>
DB00342

> <SECONDARY_ACCESSION_NUMBERS>
APRD00606

> <DRUG_GROUPS>
approved; withdrawn

> <GENERIC_NAME>
Terfenadine

> <SYNONYMS>
(RS)-1-(4-tert-butylphenyl)-4-{4-[hydroxy(diphenyl)methyl]piperidin-1-yl}-butan-1-ol; Terfenadin; Terfenadina; Terfénadine; Terfenadine; Terfenadinum

> <PRODUCTS>
Allergy Relief Once A Day Allergy Caplet 120mg; Allergy relief; Apo-terfenadine Tab 120mg; Apo-terfenadine Tablets 60mg; Novo-terfenadine Tab 60mg; Seldane - Sus 30mg/5ml; Seldane - Tab 60mg; Seldane 120mg Once-A-day Caplets; Seldane Sus 6mg/ml; Seldane Tab 120mg; Seldane Tab 60mg

> <INTERNATIONAL_BRANDS>
Bronal; Daylert; Seldane; Servinin; Teldane; Terfed; Terfenadin AL; Terfenadine FLX; Terfin; Ternadin; Trexyl; Triludan

$$$$
365
  Mrv0541 02231214382D          

 26 29  0  0  1  0            999 V2000
    7.1488    1.4608    0.0000 F   0  0  0  0  0  0  0  0  0  0  0  0
    4.2364    2.2658    0.0000 O   0  0  0  0  0  0  0  0  0  0  0  0
    2.0930    1.0283    0.0000 O   0  0  0  0  0  0  0  0  0  0  0  0
    2.8075    2.2658    0.0000 O   0  0  0  0  0  0  0  0  0  0  0  0
    4.2364   -0.2092    0.0000 N   0  0  0  0  0  0  0  0  0  0  0  0
    7.1488   -0.2291    0.0000 N   0  0  0  0  0  0  0  0  0  0  0  0
    8.5746   -1.0596    0.0000 N   0  0  0  0  0  0  0  0  0  0  0  0
    4.2364   -1.0342    0.0000 C   0  0  0  0  0  0  0  0  0  0  0  0
    4.6489   -1.7487    0.0000 C   0  0  0  0  0  0  0  0  0  0  0  0
    3.8239   -1.7487    0.0000 C   0  0  0  0  0  0  0  0  0  0  0  0
    4.9509    0.2033    0.0000 C   0  0  0  0  0  0  0  0  0  0  0  0
    3.5220    0.2033    0.0000 C   0  0  0  0  0  0  0  0  0  0  0  0
    4.9509    1.0283    0.0000 C   0  0  0  0  0  0  0  0  0  0  0  0
    6.4359    0.1861    0.0000 C   0  0  0  0  0  0  0  0  0  0  0  0
    7.1456   -1.0541    0.0000 C   0  0  0  0  0  0  0  0  0  0  0  0
    5.6884   -0.2378    0.0000 C   0  0  0  0  0  0  0  0  0  0  0  0
    7.8585   -1.4693    0.0000 C   0  0  0  0  0  0  0  0  0  0  0  0
    7.8649    0.1806    0.0000 C   0  0  0  0  0  0  0  0  0  0  0  0
    8.5778   -0.2346    0.0000 C   0  0  0  0  0  0  0  0  0  0  0  0
    5.6884    1.4694    0.0000 C   0  0  0  0  0  0  0  0  0  0  0  0
    3.5220    1.0283    0.0000 C   0  0  0  0  0  0  0  0  0  0  0  0
    4.2364    1.4408    0.0000 C   0  0  0  0  0  0  0  0  0  0  0  0
    6.4359    1.0455    0.0000 C   0  0  0  0  0  0  0  0  0  0  0  0
    7.8553   -2.2943    0.0000 C   0  0  0  0  0  0  0  0  0  0  0  0
    5.6789    2.2943    0.0000 C   0  0  0  0  0  0  0  0  0  0  0  0
    2.8075    1.4408    0.0000 C   0  0  0  0  0  0  0  0  0  0  0  0
  1 23  1  0  0  0  0
  2 22  2  0  0  0  0
  3 26  1  0  0  0  0
  4 26  2  0  0  0  0
  5  8  1  0  0  0  0
  5 11  1  0  0  0  0
  5 12  1  0  0  0  0
  6 14  1  0  0  0  0
  6 15  1  0  0  0  0
  6 18  1  0  0  0  0
  7 17  1  0  0  0  0
  7 19  1  0  0  0  0
  8  9  1  0  0  0  0
  8 10  1  0  0  0  0
  9 10  1  0  0  0  0
 11 13  1  0  0  0  0
 11 16  2  0  0  0  0
 12 21  2  0  0  0  0
 13 20  2  0  0  0  0
 13 22  1  0  0  0  0
 14 16  1  0  0  0  0
 14 23  2  0  0  0  0
 15 17  1  0  0  0  0
 17 24  1  0  0  0  0
 18 19  1  0  0  0  0
 20 23  1  0  0  0  0
 20 25  1  0  0  0  0
 21 22  1  0  0  0  0
 21 26  1  0  0  0  0
M  END
> <DATABASE_ID>
DB00365

> <DATABASE_NAME>
drugbank

> <SMILES>
CC1CN(CCN1)C1=C(F)C(C)=C2C(=O)C(=CN(C3CC3)C2=C1)C(O)=O

> <INCHI_IDENTIFIER>
InChI=1S/C19H22FN3O3/c1-10-8-22(6-5-21-10)15-7-14-16(11(2)17(15)20)18(24)13(19(25)26)9-23(14)12-3-4-12/h7,9-10,12,21H,3-6,8H2,1-2H3,(H,25,26)

> <INCHI_KEY>
AIJTTZAVMXIJGM-UHFFFAOYSA-N

> <FORMULA>
C19H22FN3O3

> <MOLECULAR_WEIGHT>
359.3947

> <EXACT_MASS>
359.16451979

> <JCHEM_ACCEPTOR_COUNT>
6

> <JCHEM_AVERAGE_POLARIZABILITY>
37.692870910728004

> <JCHEM_BIOAVAILABILITY>
1

> <JCHEM_DONOR_COUNT>
2

> <JCHEM_FORMAL_CHARGE>
0

> <JCHEM_GHOSE_FILTER>
1

> <JCHEM_IUPAC>
1-cyclopropyl-6-fluoro-5-methyl-7-(3-methylpiperazin-1-yl)-4-oxo-1,4-dihydroquinoline-3-carboxylic acid

> <ALOGPS_LOGP>
-0.12

> <JCHEM_LOGP>
0.11811200672493903

> <ALOGPS_LOGS>
-2.76

> <JCHEM_MDDR_LIKE_RULE>
0

> <JCHEM_NUMBER_OF_RINGS>
4

> <JCHEM_PHYSIOLOGICAL_CHARGE>
0

> <JCHEM_PKA_STRONGEST_ACIDIC>
5.876593176832228

> <JCHEM_PKA_STRONGEST_BASIC>
8.770720290866418

> <JCHEM_POLAR_SURFACE_AREA>
72.88

> <JCHEM_REFRACTIVITY>
97.39939999999999

> <JCHEM_ROTATABLE_BOND_COUNT>
3

> <JCHEM_RULE_OF_FIVE>
1

> <ALOGPS_SOLUBILITY>
6.32e-01 g/l

> <JCHEM_TRADITIONAL_IUPAC>
grepafloxacin

> <JCHEM_VEBER_RULE>
0

> <DRUGBANK_ID>
DB00365

> <SECONDARY_ACCESSION_NUMBERS>
APRD01003

> <DRUG_GROUPS>
approved; investigational; withdrawn

> <GENERIC_NAME>
Grepafloxacin

> <PRODUCTS>
Raxar

> <SALTS>
Grepafloxacin hydrochloride

$$$$
372
  Mrv0541 02231214382D          

 27 30  0  0  0  0            999 V2000
    5.2216   -2.6666    0.0000 S   0  0  0  0  0  0  0  0  0  0  0  0
    8.1336   -0.9969    0.0000 S   0  0  0  0  0  0  0  0  0  0  0  0
    3.7929    1.4578    0.0000 N   0  0  0  0  0  0  0  0  0  0  0  0
    2.3641    2.2827    0.0000 N   0  0  0  0  0  0  0  0  0  0  0  0
    5.2216   -1.0169    0.0000 N   0  0  0  0  0  0  0  0  0  0  0  0
    3.0786    1.0454    0.0000 C   0  0  0  0  0  0  0  0  0  0  0  0
    3.7929    2.2827    0.0000 C   0  0  0  0  0  0  0  0  0  0  0  0
    4.5073    1.0454    0.0000 C   0  0  0  0  0  0  0  0  0  0  0  0
    2.3641    1.4578    0.0000 C   0  0  0  0  0  0  0  0  0  0  0  0
    3.0786    2.6951    0.0000 C   0  0  0  0  0  0  0  0  0  0  0  0
    4.5073    0.2205    0.0000 C   0  0  0  0  0  0  0  0  0  0  0  0
    5.2216   -0.1920    0.0000 C   0  0  0  0  0  0  0  0  0  0  0  0
    1.6498    2.6951    0.0000 C   0  0  0  0  0  0  0  0  0  0  0  0
    5.9361   -1.4293    0.0000 C   0  0  0  0  0  0  0  0  0  0  0  0
    4.5073   -1.4293    0.0000 C   0  0  0  0  0  0  0  0  0  0  0  0
    5.9361   -2.2542    0.0000 C   0  0  0  0  0  0  0  0  0  0  0  0
    4.5073   -2.2542    0.0000 C   0  0  0  0  0  0  0  0  0  0  0  0
    6.6734   -0.9883    0.0000 C   0  0  0  0  0  0  0  0  0  0  0  0
    3.7699   -0.9883    0.0000 C   0  0  0  0  0  0  0  0  0  0  0  0
    6.6734   -2.6951    0.0000 C   0  0  0  0  0  0  0  0  0  0  0  0
    7.4209   -1.4121    0.0000 C   0  0  0  0  0  0  0  0  0  0  0  0
    3.7699   -2.6951    0.0000 C   0  0  0  0  0  0  0  0  0  0  0  0
    7.4209   -2.2713    0.0000 C   0  0  0  0  0  0  0  0  0  0  0  0
    3.0225   -1.4121    0.0000 C   0  0  0  0  0  0  0  0  0  0  0  0
    3.0225   -2.2713    0.0000 C   0  0  0  0  0  0  0  0  0  0  0  0
    8.8496   -1.4066    0.0000 C   0  0  0  0  0  0  0  0  0  0  0  0
    9.5623   -0.9914    0.0000 C   0  0  0  0  0  0  0  0  0  0  0  0
  1 16  1  0  0  0  0
  1 17  1  0  0  0  0
  2 21  1  0  0  0  0
  2 26  1  0  0  0  0
  3  6  1  0  0  0  0
  3  7  1  0  0  0  0
  3  8  1  0  0  0  0
  4  9  1  0  0  0  0
  4 10  1  0  0  0  0
  4 13  1  0  0  0  0
  5 12  1  0  0  0  0
  5 14  1  0  0  0  0
  5 15  1  0  0  0  0
  6  9  1  0  0  0  0
  7 10  1  0  0  0  0
  8 11  1  0  0  0  0
 11 12  1  0  0  0  0
 14 16  2  0  0  0  0
 14 18  1  0  0  0  0
 15 17  1  0  0  0  0
 15 19  2  0  0  0  0
 16 20  1  0  0  0  0
 17 22  2  0  0  0  0
 18 21  2  0  0  0  0
 19 24  1  0  0  0  0
 20 23  2  0  0  0  0
 21 23  1  0  0  0  0
 22 25  1  0  0  0  0
 24 25  2  0  0  0  0
 26 27  1  0  0  0  0
M  END
> <DATABASE_ID>
DB00372

> <DATABASE_NAME>
drugbank

> <SMILES>
CCSC1=CC2=C(SC3=CC=CC=C3N2CCCN2CCN(C)CC2)C=C1

> <INCHI_IDENTIFIER>
InChI=1S/C22H29N3S2/c1-3-26-18-9-10-22-20(17-18)25(19-7-4-5-8-21(19)27-22)12-6-11-24-15-13-23(2)14-16-24/h4-5,7-10,17H,3,6,11-16H2,1-2H3

> <INCHI_KEY>
XCTYLCDETUVOIP-UHFFFAOYSA-N

> <FORMULA>
C22H29N3S2

> <MOLECULAR_WEIGHT>
399.616

> <EXACT_MASS>
399.180289323

> <JCHEM_ACCEPTOR_COUNT>
3

> <JCHEM_AVERAGE_POLARIZABILITY>
46.52630828989337

> <JCHEM_BIOAVAILABILITY>
1

> <JCHEM_DONOR_COUNT>
0

> <JCHEM_FORMAL_CHARGE>
0

> <JCHEM_GHOSE_FILTER>
1

> <JCHEM_IUPAC>
2-(ethylsulfanyl)-10-[3-(4-methylpiperazin-1-yl)propyl]-10H-phenothiazine

> <ALOGPS_LOGP>
5.12

> <JCHEM_LOGP>
4.659322273666666

> <ALOGPS_LOGS>
-4.91

> <JCHEM_MDDR_LIKE_RULE>
1

> <JCHEM_NUMBER_OF_RINGS>
4

> <JCHEM_PHYSIOLOGICAL_CHARGE>
1

> <JCHEM_PKA_STRONGEST_BASIC>
8.395003084839797

> <JCHEM_POLAR_SURFACE_AREA>
9.72

> <JCHEM_REFRACTIVITY>
122.55830000000003

> <JCHEM_ROTATABLE_BOND_COUNT>
6

> <JCHEM_RULE_OF_FIVE>
1

> <ALOGPS_SOLUBILITY>
4.87e-03 g/l

> <JCHEM_TRADITIONAL_IUPAC>
thiethylperazine

> <JCHEM_VEBER_RULE>
1

> <DRUGBANK_ID>
DB00372

> <SECONDARY_ACCESSION_NUMBERS>
APRD00323

> <DRUG_GROUPS>
approved; withdrawn

> <GENERIC_NAME>
Thiethylperazine

> <SYNONYMS>
2-(ethylthio)-10-[3-(4-methylpiperazin-1-yl)propyl]-10H-phenothiazine; Norzine; Thiethylperazin; Thiéthylpérazine; Thiethylperazine; Thiethylperazinum; Tietilperazina

> <PRODUCTS>
Torecan

> <SALTS>
Thiethylperazine malate; Thiethylperazine maleate

$$$$
378
  Mrv0541 02231214382D          

 26 29  0  0  1  0            999 V2000
    6.5848    2.1027    0.0000 O   0  0  0  0  0  0  0  0  0  0  0  0
    1.6499   -2.0649    0.0000 O   0  0  0  0  0  0  0  0  0  0  0  0
    6.0989    0.4532    0.0000 C   0  0  1  0  0  0  0  0  0  0  0  0
    6.0989   -0.3718    0.0000 C   0  0  2  0  0  0  0  0  0  0  0  0
    5.3846   -0.7843    0.0000 C   0  0  1  0  0  0  0  0  0  0  0  0
    4.6700   -0.3718    0.0000 C   0  0  1  0  0  0  0  0  0  0  0  0
    6.8795    0.7046    0.0000 C   0  0  2  0  0  0  0  0  0  0  0  0
    5.3846    0.8656    0.0000 C   0  0  0  0  0  0  0  0  0  0  0  0
    6.8795   -0.6232    0.0000 C   0  0  0  0  0  0  0  0  0  0  0  0
    4.6700    0.4532    0.0000 C   0  0  0  0  0  0  0  0  0  0  0  0
    3.9194   -0.7899    0.0000 C   0  0  1  0  0  0  0  0  0  0  0  0
    7.3609    0.0407    0.0000 C   0  0  0  0  0  0  0  0  0  0  0  0
    6.0989    1.2781    0.0000 C   0  0  0  0  0  0  0  0  0  0  0  0
    5.3978   -1.6435    0.0000 C   0  0  0  0  0  0  0  0  0  0  0  0
    3.9128   -1.6492    0.0000 C   0  0  0  0  0  0  0  0  0  0  0  0
    3.1548   -0.3246    0.0000 C   0  0  0  0  0  0  0  0  0  0  0  0
    7.1359    1.4887    0.0000 C   0  0  0  0  0  0  0  0  0  0  0  0
    3.9257    0.0350    0.0000 C   0  0  0  0  0  0  0  0  0  0  0  0
    4.6569   -2.0789    0.0000 C   0  0  0  0  0  0  0  0  0  0  0  0
    2.3728   -0.7602    0.0000 C   0  0  0  0  0  0  0  0  0  0  0  0
    3.1411   -2.1027    0.0000 C   0  0  0  0  0  0  0  0  0  0  0  0
    2.3659   -1.6552    0.0000 C   0  0  0  0  0  0  0  0  0  0  0  0
    7.9430    1.6588    0.0000 C   0  0  0  0  0  0  0  0  0  0  0  0
    6.1687   -1.0280    0.0000 H   0  0  0  0  0  0  0  0  0  0  0  0
    5.9585   -1.1098    0.0000 H   0  0  0  0  0  0  0  0  0  0  0  0
    5.2417   -0.0418    0.0000 H   0  0  0  0  0  0  0  0  0  0  0  0
  1 17  2  0  0  0  0
  2 22  2  0  0  0  0
  3  4  1  0  0  0  0
  3  7  1  0  0  0  0
  3  8  1  0  0  0  0
  3 13  1  1  0  0  0
  4  5  1  0  0  0  0
  4  9  1  0  0  0  0
  4 24  1  6  0  0  0
  5  6  1  0  0  0  0
  5 14  1  0  0  0  0
  5 25  1  1  0  0  0
  6 10  1  0  0  0  0
  6 11  1  0  0  0  0
  6 26  1  1  0  0  0
  7 12  1  0  0  0  0
  7 17  1  1  0  0  0
  8 10  1  0  0  0  0
  9 12  1  0  0  0  0
 11 15  1  0  0  0  0
 11 16  1  0  0  0  0
 11 18  1  6  0  0  0
 14 19  2  0  0  0  0
 15 19  1  0  0  0  0
 15 21  2  0  0  0  0
 16 20  1  0  0  0  0
 17 23  1  0  0  0  0
 20 22  1  0  0  0  0
 21 22  1  0  0  0  0
M  END
> <DATABASE_ID>
DB00378

> <DATABASE_NAME>
drugbank

> <SMILES>
[H][C@@]12CC[C@H](C(C)=O)[C@@]1(C)CC[C@]1([H])[C@@]2([H])C=CC2=CC(=O)CC[C@@]12C

> <INCHI_IDENTIFIER>
InChI=1S/C21H28O2/c1-13(22)17-6-7-18-16-5-4-14-12-15(23)8-10-20(14,2)19(16)9-11-21(17,18)3/h4-5,12,16-19H,6-11H2,1-3H3/t16-,17+,18-,19+,20+,21+/m0/s1

> <INCHI_KEY>
JGMOKGBVKVMRFX-HQZYFCCVSA-N

> <FORMULA>
C21H28O2

> <MOLECULAR_WEIGHT>
312.4458

> <EXACT_MASS>
312.20893014

> <JCHEM_ACCEPTOR_COUNT>
2

> <JCHEM_AVERAGE_POLARIZABILITY>
36.389065588816806

> <JCHEM_BIOAVAILABILITY>
1

> <JCHEM_DONOR_COUNT>
0

> <JCHEM_FORMAL_CHARGE>
0

> <JCHEM_GHOSE_FILTER>
1

> <JCHEM_IUPAC>
(1R,2S,10S,11S,14S,15S)-14-acetyl-2,15-dimethyltetracyclo[8.7.0.0²,⁷.0¹¹,¹⁵]heptadeca-6,8-dien-5-one

> <ALOGPS_LOGP>
3.27

> <JCHEM_LOGP>
3.7866827440000006

> <ALOGPS_LOGS>
-4.81

> <JCHEM_MDDR_LIKE_RULE>
0

> <JCHEM_NUMBER_OF_RINGS>
4

> <JCHEM_PHYSIOLOGICAL_CHARGE>
0

> <JCHEM_PKA_STRONGEST_ACIDIC>
19.291890325972762

> <JCHEM_PKA_STRONGEST_BASIC>
-4.772697382905662

> <JCHEM_POLAR_SURFACE_AREA>
34.14

> <JCHEM_REFRACTIVITY>
93.8219

> <JCHEM_ROTATABLE_BOND_COUNT>
1

> <JCHEM_RULE_OF_FIVE>
1

> <ALOGPS_SOLUBILITY>
4.86e-03 g/l

> <JCHEM_TRADITIONAL_IUPAC>
dydrogesterone

> <JCHEM_VEBER_RULE>
1

> <DRUGBANK_ID>
DB00378

> <SECONDARY_ACCESSION_NUMBERS>
APRD00941

> <DRUG_GROUPS>
approved; investigational; withdrawn

> <GENERIC_NAME>
Dydrogesterone

> <SYNONYMS>
(9β,10α)-pregna-4,6-diene-3,20-dione; 10α-Isopregnenone; 6-Dehydro-retro-progesterone; 9β,10α-pregna-4,6-diene-3,20-dione; delta(6)-Retroprogesterone; delta(sup 6)-Retroprogesterone; Didrogesterona; Didrogesterone; Dydrogesterona; Dydrogestérone; Dydrogesterone; Dydrogesteronum; Gestatron; Hydrogesterone; Hydrogestrone; Isopregnenone; Retro-6-dehydroprogesterone

> <INTERNATIONAL_BRANDS>
Dabroston; Dufaston; Duphaston; Terolut

$$$$
380
  Mrv0541 02231214382D          

 19 20  0  0  1  0            999 V2000
    5.2224    2.6813    0.0000 O   0  0  0  0  0  0  0  0  0  0  0  0
    2.3645    2.6813    0.0000 O   0  0  0  0  0  0  0  0  0  0  0  0
    4.5080   -2.6813    0.0000 O   0  0  0  0  0  0  0  0  0  0  0  0
    1.6500   -2.6813    0.0000 O   0  0  0  0  0  0  0  0  0  0  0  0
    3.7935    1.0313    0.0000 N   0  0  0  0  0  0  0  0  0  0  0  0
    3.0791   -1.0313    0.0000 N   0  0  0  0  0  0  0  0  0  0  0  0
    3.7935    2.6813    0.0000 N   0  0  0  0  0  0  0  0  0  0  0  0
    3.0791   -2.6813    0.0000 N   0  0  0  0  0  0  0  0  0  0  0  0
    3.7935    0.2063    0.0000 C   0  0  2  0  0  0  0  0  0  0  0  0
    3.0791   -0.2063    0.0000 C   0  0  0  0  0  0  0  0  0  0  0  0
    4.5080    1.4438    0.0000 C   0  0  0  0  0  0  0  0  0  0  0  0
    3.0791    1.4438    0.0000 C   0  0  0  0  0  0  0  0  0  0  0  0
    4.5080   -0.2063    0.0000 C   0  0  0  0  0  0  0  0  0  0  0  0
    3.7935   -1.4438    0.0000 C   0  0  0  0  0  0  0  0  0  0  0  0
    2.3645   -1.4438    0.0000 C   0  0  0  0  0  0  0  0  0  0  0  0
    4.5080    2.2688    0.0000 C   0  0  0  0  0  0  0  0  0  0  0  0
    3.0791    2.2688    0.0000 C   0  0  0  0  0  0  0  0  0  0  0  0
    3.7935   -2.2688    0.0000 C   0  0  0  0  0  0  0  0  0  0  0  0
    2.3645   -2.2688    0.0000 C   0  0  0  0  0  0  0  0  0  0  0  0
  1 16  2  0  0  0  0
  2 17  2  0  0  0  0
  3 18  2  0  0  0  0
  4 19  2  0  0  0  0
  5  9  1  0  0  0  0
  5 11  1  0  0  0  0
  5 12  1  0  0  0  0
  6 10  1  0  0  0  0
  6 14  1  0  0  0  0
  6 15  1  0  0  0  0
  7 16  1  0  0  0  0
  7 17  1  0  0  0  0
  8 18  1  0  0  0  0
  8 19  1  0  0  0  0
  9 10  1  0  0  0  0
  9 13  1  1  0  0  0
 11 16  1  0  0  0  0
 12 17  1  0  0  0  0
 14 18  1  0  0  0  0
 15 19  1  0  0  0  0
M  END
> <DATABASE_ID>
DB00380

> <DATABASE_NAME>
drugbank

> <SMILES>
C[C@@H](CN1CC(=O)NC(=O)C1)N1CC(=O)NC(=O)C1

> <INCHI_IDENTIFIER>
InChI=1S/C11H16N4O4/c1-7(15-5-10(18)13-11(19)6-15)2-14-3-8(16)12-9(17)4-14/h7H,2-6H2,1H3,(H,12,16,17)(H,13,18,19)/t7-/m0/s1

> <INCHI_KEY>
BMKDZUISNHGIBY-ZETCQYMHSA-N

> <FORMULA>
C11H16N4O4

> <MOLECULAR_WEIGHT>
268.2691

> <EXACT_MASS>
268.11715502

> <JCHEM_ACCEPTOR_COUNT>
6

> <JCHEM_AVERAGE_POLARIZABILITY>
26.12181075550423

> <JCHEM_BIOAVAILABILITY>
1

> <JCHEM_DONOR_COUNT>
2

> <JCHEM_FORMAL_CHARGE>
0

> <JCHEM_GHOSE_FILTER>
0

> <JCHEM_IUPAC>
4-[(2S)-2-(3,5-dioxopiperazin-1-yl)propyl]piperazine-2,6-dione

> <ALOGPS_LOGP>
-1.05

> <JCHEM_LOGP>
-2.6526549413333336

> <ALOGPS_LOGS>
-1.41

> <JCHEM_MDDR_LIKE_RULE>
0

> <JCHEM_NUMBER_OF_RINGS>
2

> <JCHEM_PHYSIOLOGICAL_CHARGE>
0

> <JCHEM_PKA>
11.800852844190322

> <JCHEM_PKA_STRONGEST_ACIDIC>
11.198792840713974

> <JCHEM_PKA_STRONGEST_BASIC>
3.595816919458805

> <JCHEM_POLAR_SURFACE_AREA>
98.82

> <JCHEM_REFRACTIVITY>
64.2532

> <JCHEM_ROTATABLE_BOND_COUNT>
3

> <JCHEM_RULE_OF_FIVE>
1

> <ALOGPS_SOLUBILITY>
1.04e+01 g/l

> <JCHEM_TRADITIONAL_IUPAC>
dexrazoxane

> <JCHEM_VEBER_RULE>
0

> <DRUGBANK_ID>
DB00380

> <SECONDARY_ACCESSION_NUMBERS>
APRD00090; DB02444

> <DRUG_GROUPS>
approved; withdrawn

> <GENERIC_NAME>
Dexrazoxane

> <SYNONYMS>
(+)-(S)-4,4'-Propylenedi-2,6-piperazinedione; (+)-1,2-Bis(3,5-dioxo-1-piperazinyl)propane; 4-[(2S)-2-(3,5-dioxopiperazin-1-yl)propyl]piperazine-2,6-dione; Dexrazoxan; Dexrazoxane; Dexrazoxano; Dexrazoxanum; Dextrorazoxane

> <PRODUCTS>
Cardioxane; Dexrazoxane; Dexrazoxane Hydrochloride; Savene; Totect; Zinecard

> <INTERNATIONAL_BRANDS>
Ao Nuo Xian; Cardioxane

> <SALTS>
Dexrazoxane hydrochloride

$$$$
382
  Mrv0541 02231214382D          

 15 17  0  0  0  0            999 V2000
    3.6958   -1.2972    0.0000 N   0  0  0  0  0  0  0  0  0  0  0  0
    3.6958    1.0790    0.0000 N   0  0  0  0  0  0  0  0  0  0  0  0
    1.5842   -0.0926    0.0000 C   0  0  0  0  0  0  0  0  0  0  0  0
    2.3019    0.3145    0.0000 C   0  0  0  0  0  0  0  0  0  0  0  0
    1.5842   -0.9176    0.0000 C   0  0  0  0  0  0  0  0  0  0  0  0
    3.0099   -0.1091    0.0000 C   0  0  0  0  0  0  0  0  0  0  0  0
    2.3019   -1.3246    0.0000 C   0  0  0  0  0  0  0  0  0  0  0  0
    3.0099   -0.9011    0.0000 C   0  0  0  0  0  0  0  0  0  0  0  0
    3.6958    0.2870    0.0000 C   0  0  0  0  0  0  0  0  0  0  0  0
    4.3819   -0.1091    0.0000 C   0  0  0  0  0  0  0  0  0  0  0  0
    4.3819   -0.9011    0.0000 C   0  0  0  0  0  0  0  0  0  0  0  0
    5.0899    0.3145    0.0000 C   0  0  0  0  0  0  0  0  0  0  0  0
    5.0899   -1.3246    0.0000 C   0  0  0  0  0  0  0  0  0  0  0  0
    5.8076   -0.0926    0.0000 C   0  0  0  0  0  0  0  0  0  0  0  0
    5.8076   -0.9176    0.0000 C   0  0  0  0  0  0  0  0  0  0  0  0
  1  8  2  0  0  0  0
  1 11  1  0  0  0  0
  2  9  1  0  0  0  0
  3  4  1  0  0  0  0
  3  5  1  0  0  0  0
  4  6  1  0  0  0  0
  5  7  1  0  0  0  0
  6  8  1  0  0  0  0
  6  9  2  0  0  0  0
  7  8  1  0  0  0  0
  9 10  1  0  0  0  0
 10 11  1  0  0  0  0
 10 12  2  0  0  0  0
 11 13  2  0  0  0  0
 12 14  1  0  0  0  0
 13 15  1  0  0  0  0
 14 15  2  0  0  0  0
M  END
> <DATABASE_ID>
DB00382

> <DATABASE_NAME>
drugbank

> <SMILES>
NC1=C2CCCCC2=NC2=CC=CC=C12

> <INCHI_IDENTIFIER>
InChI=1S/C13H14N2/c14-13-9-5-1-3-7-11(9)15-12-8-4-2-6-10(12)13/h1,3,5,7H,2,4,6,8H2,(H2,14,15)

> <INCHI_KEY>
YLJREFDVOIBQDA-UHFFFAOYSA-N

> <FORMULA>
C13H14N2

> <MOLECULAR_WEIGHT>
198.2637

> <EXACT_MASS>
198.115698458

> <JCHEM_ACCEPTOR_COUNT>
2

> <JCHEM_AVERAGE_POLARIZABILITY>
22.79015707088682

> <JCHEM_BIOAVAILABILITY>
1

> <JCHEM_DONOR_COUNT>
1

> <JCHEM_FORMAL_CHARGE>
0

> <JCHEM_GHOSE_FILTER>
1

> <JCHEM_IUPAC>
1,2,3,4-tetrahydroacridin-9-amine

> <ALOGPS_LOGP>
3.13

> <JCHEM_LOGP>
2.628144685

> <ALOGPS_LOGS>
-3.16

> <JCHEM_MDDR_LIKE_RULE>
0

> <JCHEM_NUMBER_OF_RINGS>
3

> <JCHEM_PHYSIOLOGICAL_CHARGE>
1

> <JCHEM_PKA_STRONGEST_BASIC>
8.953831978668072

> <JCHEM_POLAR_SURFACE_AREA>
38.91

> <JCHEM_REFRACTIVITY>
61.73810000000002

> <JCHEM_ROTATABLE_BOND_COUNT>
0

> <JCHEM_RULE_OF_FIVE>
1

> <ALOGPS_SOLUBILITY>
1.36e-01 g/l

> <JCHEM_TRADITIONAL_IUPAC>
tacrine

> <JCHEM_VEBER_RULE>
1

> <DRUGBANK_ID>
DB00382

> <SECONDARY_ACCESSION_NUMBERS>
APRD00690

> <DRUG_GROUPS>
approved; investigational; withdrawn

> <GENERIC_NAME>
Tacrine

> <SYNONYMS>
1,2,3,4-tetrahydro-9-acridinamine; 1,2,3,4-tetrahydro-9-aminoacridine; 1,2,3,4-tetrahydroacridin-9-amine; 5-amino-6,7,8,9-tetrahydroacridine; 9-amino-1,2,3,4-tetrahydroacridine; Tacrin; Tacrine; Tacrinum; Tetrahydroaminacrine; Tetrahydroaminoacridine; THA

> <PRODUCTS>
Cognex

> <INTERNATIONAL_BRANDS>
Talem

> <SALTS>
Tacrine Hydrochloride

$$$$

  Mrv1718012141812102D          

 13 13  0  0  0  0            999 V2000
   -0.3572    1.8562    0.0000 C   0  0  0  0  0  0  0  0  0  0  0  0
    0.3572   -1.8562    0.0000 C   0  0  0  0  0  0  0  0  0  0  0  0
    1.0717   -1.4437    0.0000 C   0  0  0  0  0  0  0  0  0  0  0  0
   -0.3572   -1.4437    0.0000 C   0  0  0  0  0  0  0  0  0  0  0  0
    1.0717   -0.6187    0.0000 C   0  0  0  0  0  0  0  0  0  0  0  0
   -0.3572   -0.6187    0.0000 C   0  0  0  0  0  0  0  0  0  0  0  0
   -0.3572    1.0312    0.0000 C   0  0  1  0  0  0  0  0  0  0  0  0
    0.3572   -0.2062    0.0000 C   0  0  0  0  0  0  0  0  0  0  0  0
    0.3572    0.6187    0.0000 C   0  0  1  0  0  0  0  0  0  0  0  0
   -1.0717    0.6187    0.0000 N   0  0  0  0  0  0  0  0  0  0  0  0
    1.0717    1.0312    0.0000 O   0  0  0  0  0  0  0  0  0  0  0  0
    0.3572    1.4437    0.0000 H   0  0  0  0  0  0  0  0  0  0  0  0
   -0.3572    0.2062    0.0000 H   0  0  0  0  0  0  0  0  0  0  0  0
  3  2  2  0  0  0  0
  4  2  1  0  0  0  0
  5  3  1  0  0  0  0
  6  4  2  0  0  0  0
  7  1  1  0  0  0  0
  8  5  2  0  0  0  0
  8  6  1  0  0  0  0
  7  9  1  0  0  0  0
  9  8  1  0  0  0  0
  7 10  1  0  0  0  0
  9 11  1  0  0  0  0
  7 12  1  6  0  0  0
  9 13  1  1  0  0  0
M  END
> <DATABASE_ID>
DB00397

> <DATABASE_NAME>
drugbank

> <SMILES>
[H][C@@](C)(N)[C@]([H])(O)C1=CC=CC=C1

> <INCHI_IDENTIFIER>
InChI=1S/C9H13NO/c1-7(10)9(11)8-5-3-2-4-6-8/h2-7,9,11H,10H2,1H3/t7-,9-/m0/s1

> <INCHI_KEY>
DLNKOYKMWOXYQA-CBAPKCEASA-N

> <FORMULA>
C9H13NO

> <MOLECULAR_WEIGHT>
151.209

> <EXACT_MASS>
151.099714043

> <JCHEM_ACCEPTOR_COUNT>
2

> <JCHEM_ATOM_COUNT>
24

> <JCHEM_AVERAGE_POLARIZABILITY>
16.894570859327885

> <JCHEM_BIOAVAILABILITY>
1

> <JCHEM_DONOR_COUNT>
2

> <JCHEM_FORMAL_CHARGE>
0

> <JCHEM_GHOSE_FILTER>
0

> <JCHEM_IUPAC>
(1R,2S)-2-amino-1-phenylpropan-1-ol

> <ALOGPS_LOGP>
0.57

> <JCHEM_LOGP>
0.8852543346666666

> <ALOGPS_LOGS>
-0.87

> <JCHEM_MDDR_LIKE_RULE>
0

> <JCHEM_NUMBER_OF_RINGS>
1

> <JCHEM_PHYSIOLOGICAL_CHARGE>
1

> <JCHEM_PKA_STRONGEST_ACIDIC>
13.896164133633945

> <JCHEM_PKA_STRONGEST_BASIC>
9.370138989147625

> <JCHEM_POLAR_SURFACE_AREA>
46.25

> <JCHEM_REFRACTIVITY>
44.912699999999994

> <JCHEM_ROTATABLE_BOND_COUNT>
2

> <JCHEM_RULE_OF_FIVE>
1

> <ALOGPS_SOLUBILITY>
2.06e+01 g/l

> <JCHEM_TRADITIONAL_IUPAC>
fenilpropanolamina

> <JCHEM_VEBER_RULE>
0

> <DRUGBANK_ID>
DB00397

> <SECONDARY_ACCESSION_NUMBERS>
APRD00457; DB09441

> <DRUG_GROUPS>
approved; vet_approved; withdrawn

> <GENERIC_NAME>
Phenylpropanolamine

> <SYNONYMS>
(+-)-Norephedrine; (+-)-Phenylpropanolamine; Fenilpropanolamina; Norephedrine; Phenylpropanolamin; Phenylpropanolamina; Phenylpropanolamine; Phénylpropanolamine; Phenylpropanolaminum; PPA

> <PRODUCTS>
Antitussive Decong Antihistamine Syr; Bronchodex D Cap; Bronchosirum Pour Enfants; Caldomine Dh Adulte; Caldomine Dh Enfant; Centracol DM - Syr; Chlor Tripolon Decongest Syr; Cold & Allergy Relief - Liq; Cold Decongestant Long Acting Cap; Cold Relief; Cold Relief DM; Contac Cold Capsules; Contac Cold Extra Strength Capsules; Contac Cough Cold and Flu Caplets; Contact C Src; Coricidin D Long Acting Tab; Coricidin D Tab; Coricidin Nd Tab; Coricidin Sinus Headache Tab; Corsym Suspension; Cough, Cold & Allergy Relief; Counteract Sinus and Allergy; Decongestant Antihistaminic Syrup; Dilotab; Dimetane Expectorant Liq; Dimetane Expectorant-C Syr; Dimetane Expectorant-DC Syr; Dimetapp Chewable Tablets; Dimetapp Children's Cold & Allergy Tablets; Dimetapp Children's Cold & Fever; Dimetapp Clear; Dimetapp Cold & Sinus; Dimetapp Cough & Cold Liqui-gels - Cap; Dimetapp Cough, Cold & Flu; Dimetapp DM Elixir; Dimetapp DM Tab; Dimetapp Elixir; Dimetapp Extentabs; Dimetapp Liqui-gels Cap; Dimetapp Oral Infant Drops; Dimetapp Tab; Dimetapp-C Syr; Dristan Capsules; Emercidin D Tab; Emertabs Tab; Entex LA; Entex LA Tablets Srt; Extra Strength Contac C - Src; Hycomine; Oradrine 2 Tab; Oradrine Tablets; Ornade AF Liquid; Ornade AF Spansule Src; Ornade DM 10 Liq; Ornade DM 15 Liq; Ornade DM 30 Liq; Ornade Expectorant Cough Formula; Ornade Liquid; Ornade Spansule Src; Pharmacol DM Syr; Pharmetapp Elixir; Pharminicol DM Syrup; Sine Off Nd Extra Strength Caplet; Sine-off Allergy Tab; Sine-off N.D. Tab; Sine-off N.D. Tablet; Sinutab Sa Tab; Tantacol DM Syr; Tantapp Elixir; Tavist-D Tablets; Triaminic Cold and Allergy Syrup; Triaminic DM Daytime Syr; Triaminic Expectorant Dh Syrup; Triaminic Time Release Tab; Triaminicin Colds & Flu Caplets; Trisulfaminic Sus; Trisulfaminic Tab; Tussaminic C Forte Syrup; Tussaminic C Pediatric Syrup; Tussaminic Dh Forte Syrup; Tussaminic Dh Pediatric Syrup

> <INTERNATIONAL_BRANDS>
Acutrim; Boxogetten; Dexatrim; Disudrin; Naldec; Nasadec; Nasathera; Propagest; Recatol mono; Rhindecon; Rinexin

> <SALTS>
Phenylpropanolamine hydrochloride

$$$$
409
  Mrv0541 02231214392D          

 22 23  0  0  1  0            999 V2000
    2.3645   -2.5585    0.0000 Br  0  0  0  0  0  0  0  0  0  0  0  0
    3.0791    0.3290    0.0000 O   0  0  0  0  0  0  0  0  0  0  0  0
    2.3645   -0.9085    0.0000 O   0  0  0  0  0  0  0  0  0  0  0  0
    5.2224   -0.9085    0.0000 O   0  0  0  0  0  0  0  0  0  0  0  0
    5.9762    1.2309    0.0000 N   0  0  0  0  0  0  0  0  0  0  0  0
    4.5080    0.3290    0.0000 N   0  0  0  0  0  0  0  0  0  0  0  0
    5.2224    1.5665    0.0000 C   0  0  1  0  0  0  0  0  0  0  0  0
    5.3087    2.3870    0.0000 C   0  0  0  0  0  0  0  0  0  0  0  0
    6.1157    2.5585    0.0000 C   0  0  0  0  0  0  0  0  0  0  0  0
    6.5282    1.8441    0.0000 C   0  0  0  0  0  0  0  0  0  0  0  0
    4.5080    1.1540    0.0000 C   0  0  0  0  0  0  0  0  0  0  0  0
    6.1477    0.4240    0.0000 C   0  0  0  0  0  0  0  0  0  0  0  0
    6.9323    0.1690    0.0000 C   0  0  0  0  0  0  0  0  0  0  0  0
    3.7935   -0.0835    0.0000 C   0  0  0  0  0  0  0  0  0  0  0  0
    3.7935   -0.9085    0.0000 C   0  0  0  0  0  0  0  0  0  0  0  0
    3.0791   -1.3210    0.0000 C   0  0  0  0  0  0  0  0  0  0  0  0
    4.5080   -1.3210    0.0000 C   0  0  0  0  0  0  0  0  0  0  0  0
    3.0791   -2.1460    0.0000 C   0  0  0  0  0  0  0  0  0  0  0  0
    4.5080   -2.1460    0.0000 C   0  0  0  0  0  0  0  0  0  0  0  0
    3.7935   -2.5585    0.0000 C   0  0  0  0  0  0  0  0  0  0  0  0
    1.6500   -1.3210    0.0000 C   0  0  0  0  0  0  0  0  0  0  0  0
    5.9370   -1.3210    0.0000 C   0  0  0  0  0  0  0  0  0  0  0  0
  1 18  1  0  0  0  0
  2 14  2  0  0  0  0
  3 16  1  0  0  0  0
  3 21  1  0  0  0  0
  4 17  1  0  0  0  0
  4 22  1  0  0  0  0
  5  7  1  0  0  0  0
  5 10  1  0  0  0  0
  5 12  1  0  0  0  0
  6 11  1  0  0  0  0
  6 14  1  0  0  0  0
  7  8  1  0  0  0  0
  7 11  1  6  0  0  0
  8  9  1  0  0  0  0
  9 10  1  0  0  0  0
 12 13  1  0  0  0  0
 14 15  1  0  0  0  0
 15 16  1  0  0  0  0
 15 17  2  0  0  0  0
 16 18  2  0  0  0  0
 17 19  1  0  0  0  0
 18 20  1  0  0  0  0
 19 20  2  0  0  0  0
M  END
> <DATABASE_ID>
DB00409

> <DATABASE_NAME>
drugbank

> <SMILES>
CCN1CCC[C@H]1CNC(=O)C1=C(OC)C=CC(Br)=C1OC

> <INCHI_IDENTIFIER>
InChI=1S/C16H23BrN2O3/c1-4-19-9-5-6-11(19)10-18-16(20)14-13(21-2)8-7-12(17)15(14)22-3/h7-8,11H,4-6,9-10H2,1-3H3,(H,18,20)/t11-/m0/s1

> <INCHI_KEY>
GUJRSXAPGDDABA-NSHDSACASA-N

> <FORMULA>
C16H23BrN2O3

> <MOLECULAR_WEIGHT>
371.269

> <EXACT_MASS>
370.089205259

> <JCHEM_ACCEPTOR_COUNT>
4

> <JCHEM_AVERAGE_POLARIZABILITY>
36.246314685981304

> <JCHEM_BIOAVAILABILITY>
1

> <JCHEM_DONOR_COUNT>
1

> <JCHEM_FORMAL_CHARGE>
0

> <JCHEM_GHOSE_FILTER>
1

> <JCHEM_IUPAC>
3-bromo-N-{[(2S)-1-ethylpyrrolidin-2-yl]methyl}-2,6-dimethoxybenzamide

> <ALOGPS_LOGP>
2.94

> <JCHEM_LOGP>
2.341989283666666

> <ALOGPS_LOGS>
-3.47

> <JCHEM_MDDR_LIKE_RULE>
0

> <JCHEM_NUMBER_OF_RINGS>
2

> <JCHEM_PHYSIOLOGICAL_CHARGE>
1

> <JCHEM_PKA_STRONGEST_ACIDIC>
13.061706116917048

> <JCHEM_PKA_STRONGEST_BASIC>
8.399395861757496

> <JCHEM_POLAR_SURFACE_AREA>
50.800000000000004

> <JCHEM_REFRACTIVITY>
90.56120000000001

> <JCHEM_ROTATABLE_BOND_COUNT>
6

> <JCHEM_RULE_OF_FIVE>
1

> <ALOGPS_SOLUBILITY>
1.27e-01 g/l

> <JCHEM_TRADITIONAL_IUPAC>
remoxipride

> <JCHEM_VEBER_RULE>
0

> <DRUGBANK_ID>
DB00409

> <SECONDARY_ACCESSION_NUMBERS>
APRD00316

> <DRUG_GROUPS>
approved; withdrawn

> <GENERIC_NAME>
Remoxipride

> <SYNONYMS>
Remoxiprida; Remoxipride; Remoxipridum

> <INTERNATIONAL_BRANDS>
Roxiam

> <SALTS>
Remoxipride hydrochloride

$$$$
414
  Mrv0541 02231214402D          

 22 23  0  0  0  0            999 V2000
    2.4751    0.0000    0.0000 S   0  0  0  0  0  0  0  0  0  0  0  0
    3.9041    0.8250    0.0000 O   0  0  0  0  0  0  0  0  0  0  0  0
    1.6500    0.0000    0.0000 O   0  0  0  0  0  0  0  0  0  0  0  0
    3.3001    0.0000    0.0000 O   0  0  0  0  0  0  0  0  0  0  0  0
    3.1895   -3.7126    0.0000 O   0  0  0  0  0  0  0  0  0  0  0  0
    3.1895    2.0625    0.0000 N   0  0  0  0  0  0  0  0  0  0  0  0
    2.4751    0.8250    0.0000 N   0  0  0  0  0  0  0  0  0  0  0  0
    3.9041    2.4751    0.0000 C   0  0  0  0  0  0  0  0  0  0  0  0
    3.9041    3.3001    0.0000 C   0  0  0  0  0  0  0  0  0  0  0  0
    4.6185    2.0625    0.0000 C   0  0  0  0  0  0  0  0  0  0  0  0
    4.6185    3.7126    0.0000 C   0  0  0  0  0  0  0  0  0  0  0  0
    5.3330    2.4751    0.0000 C   0  0  0  0  0  0  0  0  0  0  0  0
    5.3330    3.3001    0.0000 C   0  0  0  0  0  0  0  0  0  0  0  0
    3.1895    1.2375    0.0000 C   0  0  0  0  0  0  0  0  0  0  0  0
    2.4751   -0.8250    0.0000 C   0  0  0  0  0  0  0  0  0  0  0  0
    1.7606   -1.2375    0.0000 C   0  0  0  0  0  0  0  0  0  0  0  0
    3.1895   -1.2375    0.0000 C   0  0  0  0  0  0  0  0  0  0  0  0
    2.4751   -2.4751    0.0000 C   0  0  0  0  0  0  0  0  0  0  0  0
    1.7606   -2.0625    0.0000 C   0  0  0  0  0  0  0  0  0  0  0  0
    3.1895   -2.0625    0.0000 C   0  0  0  0  0  0  0  0  0  0  0  0
    2.4751   -3.3001    0.0000 C   0  0  0  0  0  0  0  0  0  0  0  0
    1.7606   -3.7126    0.0000 C   0  0  0  0  0  0  0  0  0  0  0  0
  1  3  2  0  0  0  0
  1  4  2  0  0  0  0
  1  7  1  0  0  0  0
  1 15  1  0  0  0  0
  2 14  2  0  0  0  0
  5 21  2  0  0  0  0
  6  8  1  0  0  0  0
  6 14  1  0  0  0  0
  7 14  1  0  0  0  0
  8  9  1  0  0  0  0
  8 10  1  0  0  0  0
  9 11  1  0  0  0  0
 10 12  1  0  0  0  0
 11 13  1  0  0  0  0
 12 13  1  0  0  0  0
 15 16  2  0  0  0  0
 15 17  1  0  0  0  0
 16 19  1  0  0  0  0
 17 20  2  0  0  0  0
 18 19  2  0  0  0  0
 18 20  1  0  0  0  0
 18 21  1  0  0  0  0
 21 22  1  0  0  0  0
M  END
> <DATABASE_ID>
DB00414

> <DATABASE_NAME>
drugbank

> <SMILES>
CC(=O)C1=CC=C(C=C1)S(=O)(=O)NC(=O)NC1CCCCC1

> <INCHI_IDENTIFIER>
InChI=1S/C15H20N2O4S/c1-11(18)12-7-9-14(10-8-12)22(20,21)17-15(19)16-13-5-3-2-4-6-13/h7-10,13H,2-6H2,1H3,(H2,16,17,19)

> <INCHI_KEY>
VGZSUPCWNCWDAN-UHFFFAOYSA-N

> <FORMULA>
C15H20N2O4S

> <MOLECULAR_WEIGHT>
324.395

> <EXACT_MASS>
324.114377828

> <JCHEM_ACCEPTOR_COUNT>
4

> <JCHEM_AVERAGE_POLARIZABILITY>
33.965402081078516

> <JCHEM_BIOAVAILABILITY>
1

> <JCHEM_DONOR_COUNT>
2

> <JCHEM_FORMAL_CHARGE>
0

> <JCHEM_GHOSE_FILTER>
1

> <JCHEM_IUPAC>
3-(4-acetylbenzenesulfonyl)-1-cyclohexylurea

> <ALOGPS_LOGP>
1.72

> <JCHEM_LOGP>
1.8149334736666671

> <ALOGPS_LOGS>
-3.83

> <JCHEM_MDDR_LIKE_RULE>
0

> <JCHEM_NUMBER_OF_RINGS>
2

> <JCHEM_PHYSIOLOGICAL_CHARGE>
-1

> <JCHEM_PKA>
15.767579752295735

> <JCHEM_PKA_STRONGEST_ACIDIC>
4.313317626025074

> <JCHEM_PKA_STRONGEST_BASIC>
-7.419213725695492

> <JCHEM_POLAR_SURFACE_AREA>
92.34

> <JCHEM_REFRACTIVITY>
82.7722

> <JCHEM_ROTATABLE_BOND_COUNT>
3

> <JCHEM_RULE_OF_FIVE>
1

> <ALOGPS_SOLUBILITY>
4.83e-02 g/l

> <JCHEM_TRADITIONAL_IUPAC>
acetohexamide

> <JCHEM_VEBER_RULE>
0

> <DRUGBANK_ID>
DB00414

> <SECONDARY_ACCESSION_NUMBERS>
APRD00773

> <DRUG_GROUPS>
approved; investigational; withdrawn

> <GENERIC_NAME>
Acetohexamide

> <SYNONYMS>
1-((p-Acetylphenyl)sulfonyl)-3-cyclohexylurea; 1-[(4-acetylbenzene)sulfonyl]-3-cyclohexylurea 4-acetyl-N-(cyclohexylcarbamoyl)benzenesulfonamide; Acetohexamid; Acetohexamida; Acétohexamide; Acetohexamide; Acetohexamidum; N-(p-Acetylphenylsulfonyl)-N'-cyclohexylurea

> <PRODUCTS>
Dimelor Tablet 1843 500mg

> <INTERNATIONAL_BRANDS>
Acetohexamide; Dimelin; Dymelor; Gamadiabet

$$$$
24244
  Mrv0541 02231214402D          

 52 56  0  0  1  0            999 V2000
    9.1370    3.7174    0.0000 I   0  5  0  0  0  0  0  0  0  0  0  0
    9.1370    5.7939    0.0000 I   0  5  0  0  0  0  0  0  0  0  0  0
    3.4756    6.1314    0.0000 O   0  0  0  0  0  0  0  0  0  0  0  0
    4.8937    3.1151    0.0000 O   0  0  0  0  0  0  0  0  0  0  0  0
    1.8283    6.9254    0.0000 O   0  0  0  0  0  0  0  0  0  0  0  0
    1.8283    8.5810    0.0000 O   0  0  0  0  0  0  0  0  0  0  0  0
    5.0620    1.3259    0.0000 O   0  0  0  0  0  0  0  0  0  0  0  0
    6.1301    3.2687    0.0000 O   0  0  0  0  0  0  0  0  0  0  0  0
    5.4054    7.3406    0.0000 N   0  3  0  0  0  0  0  0  0  0  0  0
    1.3259    1.9379    0.0000 N   0  3  0  0  0  0  0  0  0  0  0  0
    4.6910    6.9282    0.0000 C   0  0  1  0  0  0  0  0  0  0  0  0
    1.9594    2.4662    0.0000 C   0  0  2  0  0  0  0  0  0  0  0  0
    5.4054    8.1657    0.0000 C   0  0  0  0  0  0  0  0  0  0  0  0
    1.4665    1.1251    0.0000 C   0  0  0  0  0  0  0  0  0  0  0  0
    3.9765    7.3406    0.0000 C   0  0  0  0  0  0  0  0  0  0  0  0
    4.6910    8.5782    0.0000 C   0  0  0  0  0  0  0  0  0  0  0  0
    2.7339    2.1817    0.0000 C   0  0  0  0  0  0  0  0  0  0  0  0
    4.4774    6.1314    0.0000 C   0  0  0  0  0  0  0  0  0  0  0  0
    3.9765    8.1657    0.0000 C   0  0  0  0  0  0  0  0  0  0  0  0
    2.2409    0.8405    0.0000 C   0  0  0  0  0  0  0  0  0  0  0  0
    6.2359    7.3406    0.0000 C   0  0  0  0  0  0  0  0  0  0  0  0
    5.8207    6.6214    0.0000 C   0  0  0  0  0  0  0  0  0  0  0  0
    1.8256    3.2736    0.0000 C   0  0  0  0  0  0  0  0  0  0  0  0
    2.8744    1.3688    0.0000 C   0  0  0  0  0  0  0  0  0  0  0  0
    0.5075    1.7963    0.0000 C   0  0  0  0  0  0  0  0  0  0  0  0
    0.7939    2.5760    0.0000 C   0  0  0  0  0  0  0  0  0  0  0  0
    3.2621    6.9282    0.0000 C   0  0  0  0  0  0  0  0  0  0  0  0
    4.8899    5.4169    0.0000 C   0  0  0  0  0  0  0  0  0  0  0  0
    3.3674    2.7100    0.0000 C   0  0  0  0  0  0  0  0  0  0  0  0
    3.2621    8.5782    0.0000 C   0  0  0  0  0  0  0  0  0  0  0  0
    2.2381    3.9880    0.0000 C   0  0  0  0  0  0  0  0  0  0  0  0
    3.6489    1.0842    0.0000 C   0  0  0  0  0  0  0  0  0  0  0  0
    2.5476    7.3406    0.0000 C   0  0  0  0  0  0  0  0  0  0  0  0
    4.1417    2.4253    0.0000 C   0  0  0  0  0  0  0  0  0  0  0  0
    2.5476    8.1657    0.0000 C   0  0  0  0  0  0  0  0  0  0  0  0
    4.2824    1.6125    0.0000 C   0  0  0  0  0  0  0  0  0  0  0  0
    4.4774    4.7025    0.0000 C   0  0  0  0  0  0  0  0  0  0  0  0
    5.7149    5.4169    0.0000 C   0  0  0  0  0  0  0  0  0  0  0  0
    1.8256    4.7025    0.0000 C   0  0  0  0  0  0  0  0  0  0  0  0
    3.0631    3.9880    0.0000 C   0  0  0  0  0  0  0  0  0  0  0  0
    3.0631    5.4169    0.0000 C   0  0  0  0  0  0  0  0  0  0  0  0
    4.8899    3.9880    0.0000 C   0  0  0  0  0  0  0  0  0  0  0  0
    2.2381    5.4169    0.0000 C   0  0  0  0  0  0  0  0  0  0  0  0
    3.4756    4.7025    0.0000 C   0  0  0  0  0  0  0  0  0  0  0  0
    6.1273    4.7025    0.0000 C   0  0  0  0  0  0  0  0  0  0  0  0
    5.7149    3.9880    0.0000 C   0  0  0  0  0  0  0  0  0  0  0  0
    1.1090    7.3406    0.0000 C   0  0  0  0  0  0  0  0  0  0  0  0
    1.8283    9.4116    0.0000 C   0  0  0  0  0  0  0  0  0  0  0  0
    5.2036    0.5075    0.0000 C   0  0  0  0  0  0  0  0  0  0  0  0
    6.9608    3.2687    0.0000 C   0  0  0  0  0  0  0  0  0  0  0  0
    5.2565    6.5056    0.0000 H   0  0  0  0  0  0  0  0  0  0  0  0
    1.2977    2.7122    0.0000 H   0  0  0  0  0  0  0  0  0  0  0  0
  3 27  1  0  0  0  0
  3 41  1  0  0  0  0
  4 34  1  0  0  0  0
  4 42  1  0  0  0  0
  5 33  1  0  0  0  0
  5 47  1  0  0  0  0
  6 35  1  0  0  0  0
  6 48  1  0  0  0  0
  7 36  1  0  0  0  0
  7 49  1  0  0  0  0
  8 46  1  0  0  0  0
  8 50  1  0  0  0  0
  9 11  1  0  0  0  0
  9 13  1  0  0  0  0
  9 21  1  0  0  0  0
  9 22  1  0  0  0  0
 10 12  1  0  0  0  0
 10 14  1  0  0  0  0
 10 25  1  0  0  0  0
 10 26  1  0  0  0  0
 11 15  1  0  0  0  0
 11 18  1  0  0  0  0
 11 51  1  1  0  0  0
 12 17  1  0  0  0  0
 12 23  1  0  0  0  0
 12 52  1  6  0  0  0
 13 16  1  0  0  0  0
 14 20  1  0  0  0  0
 15 19  1  0  0  0  0
 15 27  2  0  0  0  0
 16 19  1  0  0  0  0
 17 24  1  0  0  0  0
 17 29  2  0  0  0  0
 18 28  1  0  0  0  0
 19 30  2  0  0  0  0
 20 24  1  0  0  0  0
 23 31  1  0  0  0  0
 24 32  2  0  0  0  0
 27 33  1  0  0  0  0
 28 37  2  0  0  0  0
 28 38  1  0  0  0  0
 29 34  1  0  0  0  0
 30 35  1  0  0  0  0
 31 39  2  0  0  0  0
 31 40  1  0  0  0  0
 32 36  1  0  0  0  0
 33 35  2  0  0  0  0
 34 36  2  0  0  0  0
 37 42  1  0  0  0  0
 38 45  2  0  0  0  0
 39 43  1  0  0  0  0
 40 44  2  0  0  0  0
 41 43  2  0  0  0  0
 41 44  1  0  0  0  0
 42 46  2  0  0  0  0
 45 46  1  0  0  0  0
M  CHG  4   1  -1   2  -1   9   1  10   1
M  END
> <DATABASE_ID>
DB00416

> <DATABASE_NAME>
drugbank

> <SMILES>
[I-].[I-].[H][C@@]12CC3=CC=C(OC4=C5C(CC[N+](C)(C)[C@]5([H])CC5=CC(OC6=C(OC)C=C(CC[N+]1(C)C)C2=C6)=C(OC)C=C5)=CC(OC)=C4OC)C=C3

> <INCHI_IDENTIFIER>
InChI=1S/C40H48N2O6.2HI/c1-41(2)17-15-27-22-34(44-6)36-24-30(27)31(41)19-25-9-12-29(13-10-25)47-40-38-28(23-37(45-7)39(40)46-8)16-18-42(3,4)32(38)20-26-11-14-33(43-5)35(21-26)48-36;;/h9-14,21-24,31-32H,15-20H2,1-8H3;2*1H/q+2;;/p-2/t31-,32+;;/m0../s1

> <INCHI_KEY>
DIGFQJFCDPKEPF-OIUSMDOTSA-L

> <FORMULA>
C40H48I2N2O6

> <MOLECULAR_WEIGHT>
906.6279

> <EXACT_MASS>
906.160174118

> <JCHEM_ACCEPTOR_COUNT>
4

> <JCHEM_AVERAGE_POLARIZABILITY>
73.46490080021722

> <JCHEM_BIOAVAILABILITY>
1

> <JCHEM_DONOR_COUNT>
0

> <JCHEM_FORMAL_CHARGE>
0

> <JCHEM_GHOSE_FILTER>
0

> <JCHEM_IUPAC>
(1S,16R)-9,10,21,25-tetramethoxy-15,15,30,30-tetramethyl-7,23-dioxa-15,30-diazaheptacyclo[22.6.2.2³,⁶.1⁸,¹².1¹⁸,²².0²⁷,³¹.0¹⁶,³⁴]hexatriaconta-3,5,8(34),9,11,18(33),19,21,24,26,31,35-dodecaene-15,30-diium diiodide

> <ALOGPS_LOGP>
0.81

> <JCHEM_LOGP>
-1.8464105982768224

> <ALOGPS_LOGS>
-6.87

> <JCHEM_MDDR_LIKE_RULE>
0

> <JCHEM_NUMBER_OF_RINGS>
7

> <JCHEM_PHYSIOLOGICAL_CHARGE>
2

> <JCHEM_PKA>
14.521151981799651

> <JCHEM_PKA_STRONGEST_ACIDIC>
12.994155045322369

> <JCHEM_PKA_STRONGEST_BASIC>
-4.314769252011788

> <JCHEM_POLAR_SURFACE_AREA>
55.38000000000001

> <JCHEM_REFRACTIVITY>
211.94179999999983

> <JCHEM_ROTATABLE_BOND_COUNT>
4

> <JCHEM_RULE_OF_FIVE>
0

> <ALOGPS_SOLUBILITY>
1.23e-04 g/l

> <JCHEM_TRADITIONAL_IUPAC>
metocurine diiodide

> <JCHEM_VEBER_RULE>
0

> <DRUGBANK_ID>
DB00416

> <SECONDARY_ACCESSION_NUMBERS>
APRD01318

> <DRUG_GROUPS>
approved; withdrawn

> <GENERIC_NAME>
Metocurine iodide

> <SYNONYMS>
Dimethyl tubocurarine iodide; Dimethylchondrocurarine iodide; Dimethyltubocurarinium iodide; Metocurine iodide; Metocurini iodidum; Metubine iodide

> <PRODUCTS>
Metubine Iodide Inj 2mg/ml

$$$$

  Mrv0541 04191212122D          

 12 12  0  0  1  0            999 V2000
   -0.7145   -0.4125    0.0000 C   0  0  2  0  0  0  0  0  0  0  0  0
    0.0000   -0.8250    0.0000 C   0  0  2  0  0  0  0  0  0  0  0  0
    0.7145   -0.4125    0.0000 C   0  0  1  0  0  0  0  0  0  0  0  0
   -0.7145    0.4125    0.0000 C   0  0  2  0  0  0  0  0  0  0  0  0
    0.7145    0.4125    0.0000 C   0  0  1  0  0  0  0  0  0  0  0  0
    0.0000    0.8250    0.0000 C   0  0  1  0  0  0  0  0  0  0  0  0
    1.4289   -0.8250    0.0000 Cl  0  0  0  0  0  0  0  0  0  0  0  0
    0.0000    1.6500    0.0000 Cl  0  0  0  0  0  0  0  0  0  0  0  0
   -1.4289   -0.8250    0.0000 Cl  0  0  0  0  0  0  0  0  0  0  0  0
    0.0000   -1.6500    0.0000 Cl  0  0  0  0  0  0  0  0  0  0  0  0
   -1.4289    0.8250    0.0000 Cl  0  0  0  0  0  0  0  0  0  0  0  0
    1.4289    0.8250    0.0000 Cl  0  0  0  0  0  0  0  0  0  0  0  0
  2  1  1  0  0  0  0
  3  2  1  0  0  0  0
  4  1  1  0  0  0  0
  5  3  1  0  0  0  0
  6  4  1  0  0  0  0
  5  6  1  0  0  0  0
  3  7  1  1  0  0  0
  6  8  1  6  0  0  0
  1  9  1  1  0  0  0
  2 10  1  6  0  0  0
  4 11  1  1  0  0  0
  5 12  1  1  0  0  0
M  END
> <DATABASE_ID>
DB00431

> <DATABASE_NAME>
drugbank

> <SMILES>
Cl[C@H]1[C@H](Cl)[C@@H](Cl)[C@@H](Cl)[C@H](Cl)[C@H]1Cl

> <INCHI_IDENTIFIER>
InChI=1S/C6H6Cl6/c7-1-2(8)4(10)6(12)5(11)3(1)9/h1-6H/t1-,2-,3-,4+,5+,6+

> <INCHI_KEY>
JLYXXMFPNIAWKQ-GNIYUCBRSA-N

> <FORMULA>
C6H6Cl6

> <MOLECULAR_WEIGHT>
290.83

> <EXACT_MASS>
287.860066434

> <JCHEM_ACCEPTOR_COUNT>
0

> <JCHEM_AVERAGE_POLARIZABILITY>
23.083626690760646

> <JCHEM_BIOAVAILABILITY>
1

> <JCHEM_DONOR_COUNT>
0

> <JCHEM_FORMAL_CHARGE>
0

> <JCHEM_GHOSE_FILTER>
0

> <JCHEM_IUPAC>
(1R,2S,3r,4R,5S,6r)-1,2,3,4,5,6-hexachlorocyclohexane

> <ALOGPS_LOGP>
3.94

> <JCHEM_LOGP>
4.345541484

> <ALOGPS_LOGS>
-4.73

> <JCHEM_MDDR_LIKE_RULE>
0

> <JCHEM_NUMBER_OF_RINGS>
1

> <JCHEM_PHYSIOLOGICAL_CHARGE>
0

> <JCHEM_POLAR_SURFACE_AREA>
0

> <JCHEM_REFRACTIVITY>
54.081

> <JCHEM_ROTATABLE_BOND_COUNT>
0

> <JCHEM_RULE_OF_FIVE>
1

> <ALOGPS_SOLUBILITY>
5.47e-03 g/l

> <JCHEM_TRADITIONAL_IUPAC>
β-hexachlorobenzene

> <JCHEM_VEBER_RULE>
1

> <DRUGBANK_ID>
DB00431

> <SECONDARY_ACCESSION_NUMBERS>
APRD01072

> <DRUG_GROUPS>
approved; withdrawn

> <GENERIC_NAME>
Lindane

> <SYNONYMS>
(1r,2c,3t,4c,5c,6t)-1,2,3,4,5,6-hexachlorocyclohexane; (1α,2α,3β,4α,5α,6β)-1,2,3,4,5,6-hexachlorocyclohexane; 1,2,3,4,5,6-hexachlorocyclohexane; Benzene hexachloride; gamma-1,2,3,4,5,6-hexachlorocyclohexane; gamma-benzene hexachloride; gamma-BHC; gamma-HCH; gamma-Hexachlorocyclohexane; gamma-Lindane; Gammallin; Gammaxene; Lindan; Lindane; Lindano; Lindanum; γ-hexachlorocyclohexane; γ-Hexachlorzyklohexan; γ-lindane

> <PRODUCTS>
Dom-lindane Lotion - 1%; Hexit Lotion; Hexit Shampoo 1.0%; Kwellada Lotion 1%; Kwellada Shampoo 1%; Lindane; Lindane Lotion USP 1%; Lindane Shampoo USP 1%; PMS-lindane Lot 1%; PMS-lindane Shp 1%

> <INTERNATIONAL_BRANDS>
Gamene; Kwell; Scabene

$$$$
439
  Mrv0541 02231214412D          

 33 34  0  0  1  0            999 V2000
    8.5234    2.9833    0.0000 F   0  0  0  0  0  0  0  0  0  0  0  0
   10.6668   -0.7293    0.0000 O   0  0  0  0  0  0  0  0  0  0  0  0
    5.6655    0.5082    0.0000 O   0  0  0  0  0  0  0  0  0  0  0  0
    4.2365    0.5082    0.0000 O   0  0  0  0  0  0  0  0  0  0  0  0
    2.0930   -0.7293    0.0000 O   0  0  0  0  0  0  0  0  0  0  0  0
    2.8075    0.5082    0.0000 O   0  0  0  0  0  0  0  0  0  0  0  0
    8.5234   -1.9668    0.0000 N   0  0  0  0  0  0  0  0  0  0  0  0
    9.2379   -1.5543    0.0000 C   0  0  0  0  0  0  0  0  0  0  0  0
    7.8089   -1.5543    0.0000 C   0  0  0  0  0  0  0  0  0  0  0  0
    9.2379   -0.7293    0.0000 C   0  0  0  0  0  0  0  0  0  0  0  0
    7.8089   -0.7293    0.0000 C   0  0  0  0  0  0  0  0  0  0  0  0
    8.5234   -0.3168    0.0000 C   0  0  0  0  0  0  0  0  0  0  0  0
    7.3964   -2.2688    0.0000 C   0  0  0  0  0  0  0  0  0  0  0  0
    9.9524   -1.9668    0.0000 C   0  0  0  0  0  0  0  0  0  0  0  0
    9.9524   -0.3168    0.0000 C   0  0  0  0  0  0  0  0  0  0  0  0
    8.5234    0.5082    0.0000 C   0  0  0  0  0  0  0  0  0  0  0  0
    7.0944   -0.3168    0.0000 C   0  0  0  0  0  0  0  0  0  0  0  0
    5.6655   -0.3168    0.0000 C   0  0  1  0  0  0  0  0  0  0  0  0
    6.5714   -2.2687    0.0000 C   0  0  0  0  0  0  0  0  0  0  0  0
    7.8090   -2.9833    0.0000 C   0  0  0  0  0  0  0  0  0  0  0  0
   10.6668   -1.5543    0.0000 C   0  0  0  0  0  0  0  0  0  0  0  0
    9.9524   -2.7919    0.0000 C   0  0  0  0  0  0  0  0  0  0  0  0
    4.9509   -0.7293    0.0000 C   0  0  0  0  0  0  0  0  0  0  0  0
    6.3799   -0.7293    0.0000 C   0  0  0  0  0  0  0  0  0  0  0  0
    4.2365   -0.3168    0.0000 C   0  0  2  0  0  0  0  0  0  0  0  0
    7.8089    0.9207    0.0000 C   0  0  0  0  0  0  0  0  0  0  0  0
    9.2379    0.9207    0.0000 C   0  0  0  0  0  0  0  0  0  0  0  0
    3.5220   -0.7293    0.0000 C   0  0  0  0  0  0  0  0  0  0  0  0
    7.8089    1.7457    0.0000 C   0  0  0  0  0  0  0  0  0  0  0  0
    9.2379    1.7457    0.0000 C   0  0  0  0  0  0  0  0  0  0  0  0
    8.5234    2.1582    0.0000 C   0  0  0  0  0  0  0  0  0  0  0  0
   11.3814   -0.3168    0.0000 C   0  0  0  0  0  0  0  0  0  0  0  0
    2.8075   -0.3168    0.0000 C   0  0  0  0  0  0  0  0  0  0  0  0
  1 31  1  0  0  0  0
  2 15  1  0  0  0  0
  2 32  1  0  0  0  0
 18  3  1  6  0  0  0
 25  4  1  6  0  0  0
  5 33  1  0  0  0  0
  6 33  2  0  0  0  0
  7  8  2  0  0  0  0
  7  9  1  0  0  0  0
  8 10  1  0  0  0  0
  8 14  1  0  0  0  0
  9 11  2  0  0  0  0
  9 13  1  0  0  0  0
 10 12  2  0  0  0  0
 10 15  1  0  0  0  0
 11 12  1  0  0  0  0
 11 17  1  0  0  0  0
 12 16  1  0  0  0  0
 13 19  1  0  0  0  0
 13 20  1  0  0  0  0
 14 21  1  0  0  0  0
 14 22  1  0  0  0  0
 16 26  2  0  0  0  0
 16 27  1  0  0  0  0
 17 24  2  0  0  0  0
 18 23  1  0  0  0  0
 18 24  1  0  0  0  0
 23 25  1  0  0  0  0
 25 28  1  0  0  0  0
 26 29  1  0  0  0  0
 27 30  2  0  0  0  0
 28 33  1  0  0  0  0
 29 31  2  0  0  0  0
 30 31  1  0  0  0  0
M  END
> <DATABASE_ID>
DB00439

> <DATABASE_NAME>
drugbank

> <SMILES>
COCC1=C(C2=CC=C(F)C=C2)C(\C=C\[C@@H](O)C[C@@H](O)CC(O)=O)=C(C(C)C)N=C1C(C)C

> <INCHI_IDENTIFIER>
InChI=1S/C26H34FNO5/c1-15(2)25-21(11-10-19(29)12-20(30)13-23(31)32)24(17-6-8-18(27)9-7-17)22(14-33-5)26(28-25)16(3)4/h6-11,15-16,19-20,29-30H,12-14H2,1-5H3,(H,31,32)/b11-10+/t19-,20-/m1/s1

> <INCHI_KEY>
SEERZIQQUAZTOL-ANMDKAQQSA-N

> <FORMULA>
C26H34FNO5

> <MOLECULAR_WEIGHT>
459.5503

> <EXACT_MASS>
459.242101408

> <JCHEM_ACCEPTOR_COUNT>
6

> <JCHEM_AVERAGE_POLARIZABILITY>
50.23378509258512

> <JCHEM_BIOAVAILABILITY>
1

> <JCHEM_DONOR_COUNT>
3

> <JCHEM_FORMAL_CHARGE>
0

> <JCHEM_GHOSE_FILTER>
1

> <JCHEM_IUPAC>
(3R,5S,6E)-7-[4-(4-fluorophenyl)-5-(methoxymethyl)-2,6-bis(propan-2-yl)pyridin-3-yl]-3,5-dihydroxyhept-6-enoic acid

> <ALOGPS_LOGP>
4.15

> <JCHEM_LOGP>
2.6681542381694316

> <ALOGPS_LOGS>
-5.04

> <JCHEM_MDDR_LIKE_RULE>
0

> <JCHEM_NUMBER_OF_RINGS>
2

> <JCHEM_PHYSIOLOGICAL_CHARGE>
-1

> <JCHEM_PKA>
14.649338048923237

> <JCHEM_PKA_STRONGEST_ACIDIC>
4.049301817086692

> <JCHEM_PKA_STRONGEST_BASIC>
5.579559433437144

> <JCHEM_POLAR_SURFACE_AREA>
99.88000000000001

> <JCHEM_REFRACTIVITY>
126.82320000000003

> <JCHEM_ROTATABLE_BOND_COUNT>
11

> <JCHEM_RULE_OF_FIVE>
1

> <ALOGPS_SOLUBILITY>
4.19e-03 g/l

> <JCHEM_TRADITIONAL_IUPAC>
cerivastatin

> <JCHEM_VEBER_RULE>
0

> <DRUGBANK_ID>
DB00439

> <SECONDARY_ACCESSION_NUMBERS>
APRD00102

> <DRUG_GROUPS>
approved; withdrawn

> <GENERIC_NAME>
Cerivastatin

> <SYNONYMS>
Cerivastatin

> <PRODUCTS>
Baycol; Baycol (0.2mg); Baycol (0.3mg)

> <INTERNATIONAL_BRANDS>
Lipobay; Rivastatin

> <SALTS>
Cerivastatin sodium

$$$$

  Mrv0541 04191212122D          

 24 26  0  0  1  0            999 V2000
    4.2917   -3.6917    0.0000 N   0  0  0  0  0  0  0  0  0  0  0  0
    3.4667   -3.6917    0.0000 C   0  0  0  0  0  0  0  0  0  0  0  0
    3.4667   -2.8667    0.0000 C   0  0  2  0  0  0  0  0  0  0  0  0
    5.0042   -4.1042    0.0000 C   0  0  0  0  0  0  0  0  0  0  0  0
    4.2917   -2.8667    0.0000 C   0  0  1  0  0  0  0  0  0  0  0  0
    2.8917   -2.2917    0.0000 N   0  0  0  0  0  0  0  0  0  0  0  0
    3.1042   -1.5042    0.0000 C   0  0  0  0  0  0  0  0  0  0  0  0
    5.0042   -4.9292    0.0000 C   0  0  0  0  0  0  0  0  0  0  0  0
    5.7250   -3.6917    0.0000 C   0  0  0  0  0  0  0  0  0  0  0  0
    2.5167   -0.9167    0.0000 C   0  0  2  0  0  0  0  0  0  0  0  0
    5.0042   -2.4542    0.0000 C   0  0  0  0  0  0  0  0  0  0  0  0
    2.8917   -4.2750    0.0000 O   0  0  0  0  0  0  0  0  0  0  0  0
    2.7292   -0.1292    0.0000 N   0  0  0  0  0  0  0  0  0  0  0  0
    3.9042   -1.2917    0.0000 O   0  0  0  0  0  0  0  0  0  0  0  0
    5.7250   -2.8667    0.0000 C   0  0  0  0  0  0  0  0  0  0  0  0
    5.7250   -5.3417    0.0000 O   0  0  0  0  0  0  0  0  0  0  0  0
    4.2917   -5.3417    0.0000 O   0  0  0  0  0  0  0  0  0  0  0  0
    1.7167   -1.1292    0.0000 C   0  0  0  0  0  0  0  0  0  0  0  0
    6.4417   -4.1042    0.0000 Cl  0  0  0  0  0  0  0  0  0  0  0  0
    1.5042   -1.9125    0.0000 C   0  0  0  0  0  0  0  0  0  0  0  0
    1.1375   -0.5417    0.0000 C   0  0  0  0  0  0  0  0  0  0  0  0
    0.3500   -0.7500    0.0000 C   0  0  0  0  0  0  0  0  0  0  0  0
    0.7042   -2.1250    0.0000 C   0  0  0  0  0  0  0  0  0  0  0  0
    0.1292   -1.5417    0.0000 C   0  0  0  0  0  0  0  0  0  0  0  0
  2  1  1  0  0  0  0
  3  5  1  0  0  0  0
  4  1  1  0  0  0  0
  5  1  1  0  0  0  0
  3  6  1  1  0  0  0
  7  6  1  0  0  0  0
  8  4  1  0  0  0  0
  9  4  2  0  0  0  0
 10  7  1  0  0  0  0
  5 11  1  1  0  0  0
 12  2  2  0  0  0  0
 10 13  1  1  0  0  0
 14  7  2  0  0  0  0
 15 11  1  0  0  0  0
 16  8  1  0  0  0  0
 17  8  2  0  0  0  0
 18 10  1  0  0  0  0
 19  9  1  0  0  0  0
 20 18  1  0  0  0  0
 21 18  2  0  0  0  0
 22 21  1  0  0  0  0
 23 20  2  0  0  0  0
 24 22  2  0  0  0  0
  3  2  1  0  0  0  0
 15  9  1  0  0  0  0
 23 24  1  0  0  0  0
M  END
> <DATABASE_ID>
DB00447

> <DATABASE_NAME>
drugbank

> <SMILES>
N[C@@H](C(=O)N[C@H]1[C@H]2CCC(Cl)=C(N2C1=O)C(O)=O)C1=CC=CC=C1

> <INCHI_IDENTIFIER>
InChI=1S/C16H16ClN3O4/c17-9-6-7-10-12(15(22)20(10)13(9)16(23)24)19-14(21)11(18)8-4-2-1-3-5-8/h1-5,10-12H,6-7,18H2,(H,19,21)(H,23,24)/t10-,11-,12+/m1/s1

> <INCHI_KEY>
JAPHQRWPEGVNBT-UTUOFQBUSA-N

> <FORMULA>
C16H16ClN3O4

> <MOLECULAR_WEIGHT>
349.769

> <EXACT_MASS>
349.082933722

> <JCHEM_ACCEPTOR_COUNT>
5

> <JCHEM_AVERAGE_POLARIZABILITY>
32.60508513430199

> <JCHEM_BIOAVAILABILITY>
1

> <JCHEM_DONOR_COUNT>
3

> <JCHEM_FORMAL_CHARGE>
0

> <JCHEM_GHOSE_FILTER>
0

> <JCHEM_IUPAC>
(6R,7S)-7-[(2R)-2-amino-2-phenylacetamido]-3-chloro-8-oxo-1-azabicyclo[4.2.0]oct-2-ene-2-carboxylic acid

> <ALOGPS_LOGP>
0.55

> <JCHEM_LOGP>
-2.399644435030454

> <ALOGPS_LOGS>
-3.03

> <JCHEM_MDDR_LIKE_RULE>
0

> <JCHEM_NUMBER_OF_RINGS>
3

> <JCHEM_PHYSIOLOGICAL_CHARGE>
0

> <JCHEM_PKA>
11.45187646319562

> <JCHEM_PKA_STRONGEST_ACIDIC>
3.12617361557546

> <JCHEM_PKA_STRONGEST_BASIC>
7.438256529944699

> <JCHEM_POLAR_SURFACE_AREA>
112.73000000000002

> <JCHEM_REFRACTIVITY>
86.63750000000002

> <JCHEM_ROTATABLE_BOND_COUNT>
4

> <JCHEM_RULE_OF_FIVE>
1

> <ALOGPS_SOLUBILITY>
3.25e-01 g/l

> <JCHEM_TRADITIONAL_IUPAC>
loracabef

> <JCHEM_VEBER_RULE>
0

> <DRUGBANK_ID>
DB00447

> <SECONDARY_ACCESSION_NUMBERS>
APRD01077

> <DRUG_GROUPS>
approved; investigational; withdrawn

> <GENERIC_NAME>
Loracarbef

> <SYNONYMS>
Anhydrous loracarbef; Loracarbef; Loracarbef anhydrous; Loracarbef, anhydrous; Loracarbefum

> <PRODUCTS>
Lorabid

> <INTERNATIONAL_BRANDS>
Lorafem; Lorbef

> <SALTS>
Loracarbef monohydrate

$$$$
463
  Mrv0541 02231214422D          

 14 14  0  0  0  0            999 V2000
    1.6500    0.5231    0.0000 O   0  0  0  0  0  0  0  0  0  0  0  0
    4.5080    0.5231    0.0000 O   0  0  0  0  0  0  0  0  0  0  0  0
    3.0791   -1.9520    0.0000 O   0  0  0  0  0  0  0  0  0  0  0  0
    2.3645   -0.7145    0.0000 N   0  0  0  0  0  0  0  0  0  0  0  0
    3.7935   -0.7145    0.0000 N   0  0  0  0  0  0  0  0  0  0  0  0
    3.0791    0.5231    0.0000 C   0  0  0  0  0  0  0  0  0  0  0  0
    3.4916    1.2375    0.0000 C   0  0  0  0  0  0  0  0  0  0  0  0
    2.6665    1.2375    0.0000 C   0  0  0  0  0  0  0  0  0  0  0  0
    2.3645    0.1106    0.0000 C   0  0  0  0  0  0  0  0  0  0  0  0
    3.7935    0.1106    0.0000 C   0  0  0  0  0  0  0  0  0  0  0  0
    3.0791    1.9520    0.0000 C   0  0  0  0  0  0  0  0  0  0  0  0
    1.8415    1.2375    0.0000 C   0  0  0  0  0  0  0  0  0  0  0  0
    3.0791   -1.1270    0.0000 C   0  0  0  0  0  0  0  0  0  0  0  0
    1.6500   -1.1270    0.0000 C   0  0  0  0  0  0  0  0  0  0  0  0
  1  9  2  0  0  0  0
  2 10  2  0  0  0  0
  3 13  2  0  0  0  0
  4  9  1  0  0  0  0
  4 13  1  0  0  0  0
  4 14  1  0  0  0  0
  5 10  1  0  0  0  0
  5 13  1  0  0  0  0
  6  7  1  0  0  0  0
  6  8  1  0  0  0  0
  6  9  1  0  0  0  0
  6 10  1  0  0  0  0
  7 11  1  0  0  0  0
  8 12  1  0  0  0  0
M  END
> <DATABASE_ID>
DB00463

> <DATABASE_NAME>
drugbank

> <SMILES>
CCC1(CC)C(=O)NC(=O)N(C)C1=O

> <INCHI_IDENTIFIER>
InChI=1S/C9H14N2O3/c1-4-9(5-2)6(12)10-8(14)11(3)7(9)13/h4-5H2,1-3H3,(H,10,12,14)

> <INCHI_KEY>
FWJKNZONDWOGMI-UHFFFAOYSA-N

> <FORMULA>
C9H14N2O3

> <MOLECULAR_WEIGHT>
198.2191

> <EXACT_MASS>
198.100442324

> <JCHEM_ACCEPTOR_COUNT>
3

> <JCHEM_AVERAGE_POLARIZABILITY>
19.59640491517473

> <JCHEM_BIOAVAILABILITY>
1

> <JCHEM_DONOR_COUNT>
1

> <JCHEM_FORMAL_CHARGE>
0

> <JCHEM_GHOSE_FILTER>
1

> <JCHEM_IUPAC>
5,5-diethyl-1-methyl-1,3-diazinane-2,4,6-trione

> <ALOGPS_LOGP>
1.18

> <JCHEM_LOGP>
0.9407708859999994

> <ALOGPS_LOGS>
-1.01

> <JCHEM_MDDR_LIKE_RULE>
0

> <JCHEM_NUMBER_OF_RINGS>
1

> <JCHEM_PHYSIOLOGICAL_CHARGE>
0

> <JCHEM_PKA_STRONGEST_ACIDIC>
8.74714049403917

> <JCHEM_POLAR_SURFACE_AREA>
66.48

> <JCHEM_REFRACTIVITY>
49.148999999999994

> <JCHEM_ROTATABLE_BOND_COUNT>
2

> <JCHEM_RULE_OF_FIVE>
1

> <ALOGPS_SOLUBILITY>
1.95e+01 g/l

> <JCHEM_TRADITIONAL_IUPAC>
metharbital

> <JCHEM_VEBER_RULE>
0

> <DRUGBANK_ID>
DB00463

> <SECONDARY_ACCESSION_NUMBERS>
APRD00757

> <DRUG_GROUPS>
withdrawn

> <GENERIC_NAME>
Metharbital

> <SYNONYMS>
Metarbital; Metharbital; Metharbitalum

> <INTERNATIONAL_BRANDS>
Gemonil

$$$$
473
  Mrv0541 02231214422D          

 19 20  0  0  1  0            999 V2000
    3.0787   -0.4125    0.0000 O   0  0  0  0  0  0  0  0  0  0  0  0
    1.6498   -0.4125    0.0000 O   0  0  0  0  0  0  0  0  0  0  0  0
    3.7930    1.6498    0.0000 N   0  0  0  0  0  0  0  0  0  0  0  0
    4.5075    2.0623    0.0000 C   0  0  0  0  0  0  0  0  0  0  0  0
    5.2218    1.6498    0.0000 C   0  0  0  0  0  0  0  0  0  0  0  0
    4.5075    2.8873    0.0000 C   0  0  0  0  0  0  0  0  0  0  0  0
    5.9363    2.0623    0.0000 C   0  0  0  0  0  0  0  0  0  0  0  0
    5.2218    3.2997    0.0000 C   0  0  0  0  0  0  0  0  0  0  0  0
    5.9363    2.8873    0.0000 C   0  0  0  0  0  0  0  0  0  0  0  0
    3.7930    0.8249    0.0000 C   0  0  0  0  0  0  0  0  0  0  0  0
    3.0787    0.4125    0.0000 C   0  0  0  0  0  0  0  0  0  0  0  0
    2.3642    0.8249    0.0000 C   0  0  0  0  0  0  0  0  0  0  0  0
    2.3642   -0.8249    0.0000 C   0  0  0  0  0  0  0  0  0  0  0  0
    2.3642   -1.6498    0.0000 C   0  0  0  0  0  0  0  0  0  0  0  0
    3.0787   -2.0623    0.0000 C   0  0  0  0  0  0  0  0  0  0  0  0
    1.6498   -2.0623    0.0000 C   0  0  0  0  0  0  0  0  0  0  0  0
    3.0787   -2.8873    0.0000 C   0  0  0  0  0  0  0  0  0  0  0  0
    1.6498   -2.8873    0.0000 C   0  0  0  0  0  0  0  0  0  0  0  0
    2.3642   -3.2997    0.0000 C   0  0  0  0  0  0  0  0  0  0  0  0
  1 11  1  0  0  0  0
  1 13  1  0  0  0  0
  2 13  2  0  0  0  0
  3  4  1  0  0  0  0
  3 10  1  0  0  0  0
  4  5  1  0  0  0  0
  4  6  1  0  0  0  0
  5  7  1  0  0  0  0
  6  8  1  0  0  0  0
  7  9  1  0  0  0  0
  8  9  1  0  0  0  0
 10 11  1  0  0  0  0
 11 12  1  0  0  0  0
 13 14  1  0  0  0  0
 14 15  2  0  0  0  0
 14 16  1  0  0  0  0
 15 17  1  0  0  0  0
 16 18  2  0  0  0  0
 17 19  2  0  0  0  0
 18 19  1  0  0  0  0
M  END
> <DATABASE_ID>
DB00473

> <DATABASE_NAME>
drugbank

> <SMILES>
CC(CNC1CCCCC1)OC(=O)C1=CC=CC=C1

> <INCHI_IDENTIFIER>
InChI=1S/C16H23NO2/c1-13(12-17-15-10-6-3-7-11-15)19-16(18)14-8-4-2-5-9-14/h2,4-5,8-9,13,15,17H,3,6-7,10-12H2,1H3

> <INCHI_KEY>
DKLKMKYDWHYZTD-UHFFFAOYSA-N

> <FORMULA>
C16H23NO2

> <MOLECULAR_WEIGHT>
261.3593

> <EXACT_MASS>
261.172878985

> <JCHEM_ACCEPTOR_COUNT>
2

> <JCHEM_AVERAGE_POLARIZABILITY>
30.29060176551161

> <JCHEM_BIOAVAILABILITY>
1

> <JCHEM_DONOR_COUNT>
1

> <JCHEM_FORMAL_CHARGE>
0

> <JCHEM_GHOSE_FILTER>
1

> <JCHEM_IUPAC>
1-(cyclohexylamino)propan-2-yl benzoate

> <ALOGPS_LOGP>
3.04

> <JCHEM_LOGP>
3.8281649213333333

> <ALOGPS_LOGS>
-4.43

> <JCHEM_MDDR_LIKE_RULE>
0

> <JCHEM_NUMBER_OF_RINGS>
2

> <JCHEM_PHYSIOLOGICAL_CHARGE>
1

> <JCHEM_PKA_STRONGEST_BASIC>
9.868668944072194

> <JCHEM_POLAR_SURFACE_AREA>
38.33

> <JCHEM_REFRACTIVITY>
76.24070000000002

> <JCHEM_ROTATABLE_BOND_COUNT>
6

> <JCHEM_RULE_OF_FIVE>
1

> <ALOGPS_SOLUBILITY>
9.71e-03 g/l

> <JCHEM_TRADITIONAL_IUPAC>
hexylcaine

> <JCHEM_VEBER_RULE>
1

> <DRUGBANK_ID>
DB00473

> <SECONDARY_ACCESSION_NUMBERS>
APRD01014

> <DRUG_GROUPS>
approved; withdrawn

> <GENERIC_NAME>
Hexylcaine

> <SYNONYMS>
Hexilcaina; Hexylcaine; Hexylcainum

> <INTERNATIONAL_BRANDS>
Cyclaine

> <SALTS>
Hexylcaine hydrochloride

$$$$
505
  Mrv0541 02231214442D          

 23 24  0  0  1  0            999 V2000
    1.9058    0.0000    0.0000 O   0  0  0  0  0  0  0  0  0  0  0  0
    4.7934   -0.7145    0.0000 N   0  3  0  0  0  0  0  0  0  0  0  0
    2.7308    0.8250    0.0000 C   0  0  0  0  0  0  0  0  0  0  0  0
    2.7308    0.0000    0.0000 C   0  0  0  0  0  0  0  0  0  0  0  0
    3.5558    0.0000    0.0000 C   0  0  0  0  0  0  0  0  0  0  0  0
    3.9683   -0.7145    0.0000 C   0  0  0  0  0  0  0  0  0  0  0  0
    3.4453    1.2375    0.0000 C   0  0  0  0  0  0  0  0  0  0  0  0
    2.0163    1.2375    0.0000 C   0  0  0  0  0  0  0  0  0  0  0  0
    3.4453    2.0625    0.0000 C   0  0  0  0  0  0  0  0  0  0  0  0
    2.0163    2.0625    0.0000 C   0  0  0  0  0  0  0  0  0  0  0  0
    2.7308    2.4751    0.0000 C   0  0  0  0  0  0  0  0  0  0  0  0
    4.7934    0.1106    0.0000 C   0  0  0  0  0  0  0  0  0  0  0  0
    4.7934   -1.5395    0.0000 C   0  0  0  0  0  0  0  0  0  0  0  0
    5.6184   -0.7145    0.0000 C   0  0  0  0  0  0  0  0  0  0  0  0
    2.7308   -0.8250    0.0000 C   0  0  0  0  0  0  0  0  0  0  0  0
    5.5078    0.5231    0.0000 C   0  0  0  0  0  0  0  0  0  0  0  0
    5.5078   -1.9520    0.0000 C   0  0  0  0  0  0  0  0  0  0  0  0
    6.0309   -1.4290    0.0000 C   0  0  0  0  0  0  0  0  0  0  0  0
    3.4453   -1.2375    0.0000 C   0  0  0  0  0  0  0  0  0  0  0  0
    2.0163   -1.2375    0.0000 C   0  0  0  0  0  0  0  0  0  0  0  0
    3.4453   -2.0625    0.0000 C   0  0  0  0  0  0  0  0  0  0  0  0
    2.0163   -2.0625    0.0000 C   0  0  0  0  0  0  0  0  0  0  0  0
    2.7308   -2.4751    0.0000 C   0  0  0  0  0  0  0  0  0  0  0  0
  1  4  1  0  0  0  0
  2  6  1  0  0  0  0
  2 12  1  0  0  0  0
  2 13  1  0  0  0  0
  2 14  1  0  0  0  0
  3  4  1  0  0  0  0
  3  7  1  0  0  0  0
  3  8  1  0  0  0  0
  4  5  1  0  0  0  0
  4 15  1  0  0  0  0
  5  6  1  0  0  0  0
  7  9  1  0  0  0  0
  8 10  1  0  0  0  0
  9 11  1  0  0  0  0
 10 11  1  0  0  0  0
 12 16  1  0  0  0  0
 13 17  1  0  0  0  0
 14 18  1  0  0  0  0
 15 19  2  0  0  0  0
 15 20  1  0  0  0  0
 19 21  1  0  0  0  0
 20 22  2  0  0  0  0
 21 23  2  0  0  0  0
 22 23  1  0  0  0  0
M  CHG  1   2   1
M  END
> <DATABASE_ID>
DB00505

> <DATABASE_NAME>
drugbank

> <SMILES>
CC[N+](CC)(CC)CCC(O)(C1CCCCC1)C1=CC=CC=C1

> <INCHI_IDENTIFIER>
InChI=1S/C21H36NO/c1-4-22(5-2,6-3)18-17-21(23,19-13-9-7-10-14-19)20-15-11-8-12-16-20/h7,9-10,13-14,20,23H,4-6,8,11-12,15-18H2,1-3H3/q+1

> <INCHI_KEY>
NPRHVSBSZMAEIN-UHFFFAOYSA-N

> <FORMULA>
C21H36NO

> <MOLECULAR_WEIGHT>
318.5166

> <EXACT_MASS>
318.279689779

> <JCHEM_ACCEPTOR_COUNT>
1

> <JCHEM_AVERAGE_POLARIZABILITY>
39.1692959678369

> <JCHEM_BIOAVAILABILITY>
1

> <JCHEM_DONOR_COUNT>
1

> <JCHEM_FORMAL_CHARGE>
1

> <JCHEM_GHOSE_FILTER>
1

> <JCHEM_IUPAC>
(3-cyclohexyl-3-hydroxy-3-phenylpropyl)triethylazanium

> <ALOGPS_LOGP>
2.31

> <JCHEM_LOGP>
0.2904066095282539

> <ALOGPS_LOGS>
-7.32

> <JCHEM_MDDR_LIKE_RULE>
0

> <JCHEM_NUMBER_OF_RINGS>
2

> <JCHEM_PHYSIOLOGICAL_CHARGE>
1

> <JCHEM_PKA_STRONGEST_ACIDIC>
13.689009313358827

> <JCHEM_PKA_STRONGEST_BASIC>
-3.372227326336848

> <JCHEM_POLAR_SURFACE_AREA>
20.23

> <JCHEM_REFRACTIVITY>
111.22260000000004

> <JCHEM_ROTATABLE_BOND_COUNT>
8

> <JCHEM_RULE_OF_FIVE>
1

> <ALOGPS_SOLUBILITY>
1.68e-05 g/l

> <JCHEM_TRADITIONAL_IUPAC>
tridihexethyl

> <JCHEM_VEBER_RULE>
1

> <DRUGBANK_ID>
DB00505

> <SECONDARY_ACCESSION_NUMBERS>
APRD00286

> <DRUG_GROUPS>
withdrawn

> <GENERIC_NAME>
Tridihexethyl

> <INTERNATIONAL_BRANDS>
Pathilon; Propethonum

> <SALTS>
Tridihexethyl chloride

$$$$

  Mrv0541 04191212132D          

 30 32  0  0  0  0            999 V2000
    4.3618   -5.6354    0.0000 C   0  0  0  0  0  0  0  0  0  0  0  0
    4.3618   -4.8103    0.0000 C   0  0  0  0  0  0  0  0  0  0  0  0
    5.0780   -4.3978    0.0000 C   0  0  0  0  0  0  0  0  0  0  0  0
    5.7899   -4.8103    0.0000 C   0  0  0  0  0  0  0  0  0  0  0  0
    5.7899   -5.6354    0.0000 C   0  0  0  0  0  0  0  0  0  0  0  0
    5.0780   -6.0479    0.0000 C   0  0  0  0  0  0  0  0  0  0  0  0
    3.6476   -6.0482    0.0000 O   0  0  0  0  0  0  0  0  0  0  0  0
    6.5047   -4.3983    0.0000 C   0  0  0  0  0  0  0  0  0  0  0  0
    7.2190   -4.8114    0.0000 C   0  0  1  0  0  0  0  0  0  0  0  0
    7.9338   -4.3994    0.0000 C   0  0  0  0  0  0  0  0  0  0  0  0
    8.6479   -4.8124    0.0000 N   0  0  0  0  0  0  0  0  0  0  0  0
    7.9343   -3.5744    0.0000 O   0  0  0  0  0  0  0  0  0  0  0  0
    9.3627   -4.4005    0.0000 C   0  0  0  0  0  0  0  0  0  0  0  0
    9.3624   -3.5771    0.0000 C   0  0  0  0  0  0  0  0  0  0  0  0
   10.0771   -3.1651    0.0000 C   0  0  0  0  0  0  0  0  0  0  0  0
   10.7913   -3.5782    0.0000 C   0  0  0  0  0  0  0  0  0  0  0  0
   10.7907   -4.4032    0.0000 C   0  0  0  0  0  0  0  0  0  0  0  0
   10.0759   -4.8151    0.0000 C   0  0  0  0  0  0  0  0  0  0  0  0
   11.5061   -3.1662    0.0000 C   0  0  0  0  0  0  0  0  0  0  0  0
   11.5067   -2.3412    0.0000 O   0  0  0  0  0  0  0  0  0  0  0  0
   12.2202   -3.5792    0.0000 O   0  0  0  0  0  0  0  0  0  0  0  0
    7.2183   -5.6364    0.0000 N   0  0  0  0  0  0  0  0  0  0  0  0
    7.9325   -6.0494    0.0000 C   0  0  0  0  0  0  0  0  0  0  0  0
    7.9319   -6.8744    0.0000 C   0  0  0  0  0  0  0  0  0  0  0  0
    8.6472   -5.6374    0.0000 O   0  0  0  0  0  0  0  0  0  0  0  0
    8.6455   -7.2828    0.0000 C   0  0  0  0  0  0  0  0  0  0  0  0
    8.6449   -8.1078    0.0000 C   0  0  0  0  0  0  0  0  0  0  0  0
    7.9300   -8.5197    0.0000 C   0  0  0  0  0  0  0  0  0  0  0  0
    7.2160   -8.1068    0.0000 C   0  0  0  0  0  0  0  0  0  0  0  0
    7.2166   -7.2818    0.0000 C   0  0  0  0  0  0  0  0  0  0  0  0
  4  8  1  0  0  0  0
  2  3  1  0  0  0  0
 13 14  2  0  0  0  0
 14 15  1  0  0  0  0
 15 16  2  0  0  0  0
 16 17  1  0  0  0  0
 17 18  2  0  0  0  0
 18 13  1  0  0  0  0
  8  9  1  0  0  0  0
 16 19  1  0  0  0  0
  3  4  2  0  0  0  0
 19 20  2  0  0  0  0
  9 10  1  0  0  0  0
 19 21  1  0  0  0  0
  4  5  1  0  0  0  0
  9 22  1  1  0  0  0
 10 11  1  0  0  0  0
 22 23  1  0  0  0  0
  5  6  2  0  0  0  0
 23 24  1  0  0  0  0
 10 12  2  0  0  0  0
 23 25  2  0  0  0  0
  6  1  1  0  0  0  0
 11 13  1  0  0  0  0
  1  7  1  0  0  0  0
  1  2  2  0  0  0  0
 24 26  2  0  0  0  0
 26 27  1  0  0  0  0
 27 28  2  0  0  0  0
 28 29  1  0  0  0  0
 29 30  2  0  0  0  0
 30 24  1  0  0  0  0
M  END
> <DATABASE_ID>
DB00522

> <DATABASE_NAME>
drugbank

> <SMILES>
OC(=O)C1=CC=C(NC(=O)[C@H](CC2=CC=C(O)C=C2)NC(=O)C2=CC=CC=C2)C=C1

> <INCHI_IDENTIFIER>
InChI=1S/C23H20N2O5/c26-19-12-6-15(7-13-19)14-20(25-21(27)16-4-2-1-3-5-16)22(28)24-18-10-8-17(9-11-18)23(29)30/h1-13,20,26H,14H2,(H,24,28)(H,25,27)(H,29,30)/t20-/m0/s1

> <INCHI_KEY>
SPPTWHFVYKCNNK-FQEVSTJZSA-N

> <FORMULA>
C23H20N2O5

> <MOLECULAR_WEIGHT>
404.4153

> <EXACT_MASS>
404.13722176

> <JCHEM_ACCEPTOR_COUNT>
5

> <JCHEM_AVERAGE_POLARIZABILITY>
42.16284740225868

> <JCHEM_BIOAVAILABILITY>
1

> <JCHEM_DONOR_COUNT>
4

> <JCHEM_FORMAL_CHARGE>
0

> <JCHEM_GHOSE_FILTER>
1

> <JCHEM_IUPAC>
4-[(2S)-3-(4-hydroxyphenyl)-2-(phenylformamido)propanamido]benzoic acid

> <ALOGPS_LOGP>
2.99

> <JCHEM_LOGP>
3.5389555783333333

> <ALOGPS_LOGS>
-4.99

> <JCHEM_MDDR_LIKE_RULE>
1

> <JCHEM_NUMBER_OF_RINGS>
3

> <JCHEM_PHYSIOLOGICAL_CHARGE>
-1

> <JCHEM_PKA>
9.503912519104427

> <JCHEM_PKA_STRONGEST_ACIDIC>
4.157471380782726

> <JCHEM_PKA_STRONGEST_BASIC>
-1.3006283420418332

> <JCHEM_POLAR_SURFACE_AREA>
115.73000000000002

> <JCHEM_REFRACTIVITY>
112.745

> <JCHEM_ROTATABLE_BOND_COUNT>
7

> <JCHEM_RULE_OF_FIVE>
1

> <ALOGPS_SOLUBILITY>
4.12e-03 g/l

> <JCHEM_TRADITIONAL_IUPAC>
bentiromide

> <JCHEM_VEBER_RULE>
0

> <DRUGBANK_ID>
DB00522

> <SECONDARY_ACCESSION_NUMBERS>
APRD00818

> <DRUG_GROUPS>
investigational; withdrawn

> <GENERIC_NAME>
Bentiromide

> <SYNONYMS>
Bentiromide; Bentiromido; Bentiromidum; BTPABA; PFT

> <INTERNATIONAL_BRANDS>
PFD

$$$$
532
  Mrv0541 02231214452D          

 16 17  0  0  1  0            999 V2000
    2.0082    1.2299    0.0000 O   0  0  0  0  0  0  0  0  0  0  0  0
    4.9124    1.2299    0.0000 O   0  0  0  0  0  0  0  0  0  0  0  0
    3.8728    0.1902    0.0000 N   0  0  0  0  0  0  0  0  0  0  0  0
    3.4603    1.4598    0.0000 N   0  0  0  0  0  0  0  0  0  0  0  0
    3.0478    0.1902    0.0000 C   0  0  0  0  0  0  0  0  0  0  0  0
    2.2631   -0.0647    0.0000 C   0  0  0  0  0  0  0  0  0  0  0  0
    2.7929    0.9748    0.0000 C   0  0  0  0  0  0  0  0  0  0  0  0
    3.0478   -0.6348    0.0000 C   0  0  0  0  0  0  0  0  0  0  0  0
    4.1277    0.9748    0.0000 C   0  0  0  0  0  0  0  0  0  0  0  0
    1.6500    0.4873    0.0000 C   0  0  0  0  0  0  0  0  0  0  0  0
    3.7622   -1.0473    0.0000 C   0  0  0  0  0  0  0  0  0  0  0  0
    2.3333   -1.0473    0.0000 C   0  0  0  0  0  0  0  0  0  0  0  0
    3.4603    2.2848    0.0000 C   0  0  0  0  0  0  0  0  0  0  0  0
    3.7622   -1.8723    0.0000 C   0  0  0  0  0  0  0  0  0  0  0  0
    2.3333   -1.8723    0.0000 C   0  0  0  0  0  0  0  0  0  0  0  0
    3.0478   -2.2848    0.0000 C   0  0  0  0  0  0  0  0  0  0  0  0
  1  7  2  0  0  0  0
  2  9  2  0  0  0  0
  3  5  1  0  0  0  0
  3  9  1  0  0  0  0
  4  7  1  0  0  0  0
  4  9  1  0  0  0  0
  4 13  1  0  0  0  0
  5  6  1  0  0  0  0
  5  7  1  0  0  0  0
  5  8  1  0  0  0  0
  6 10  1  0  0  0  0
  8 11  2  0  0  0  0
  8 12  1  0  0  0  0
 11 14  1  0  0  0  0
 12 15  2  0  0  0  0
 14 16  2  0  0  0  0
 15 16  1  0  0  0  0
M  END
> <DATABASE_ID>
DB00532

> <DATABASE_NAME>
drugbank

> <SMILES>
CCC1(NC(=O)N(C)C1=O)C1=CC=CC=C1

> <INCHI_IDENTIFIER>
InChI=1S/C12H14N2O2/c1-3-12(9-7-5-4-6-8-9)10(15)14(2)11(16)13-12/h4-8H,3H2,1-2H3,(H,13,16)

> <INCHI_KEY>
GMHKMTDVRCWUDX-UHFFFAOYSA-N

> <FORMULA>
C12H14N2O2

> <MOLECULAR_WEIGHT>
218.2518

> <EXACT_MASS>
218.105527702

> <JCHEM_ACCEPTOR_COUNT>
2

> <JCHEM_AVERAGE_POLARIZABILITY>
22.666201425874362

> <JCHEM_BIOAVAILABILITY>
1

> <JCHEM_DONOR_COUNT>
1

> <JCHEM_FORMAL_CHARGE>
0

> <JCHEM_GHOSE_FILTER>
1

> <JCHEM_IUPAC>
5-ethyl-3-methyl-5-phenylimidazolidine-2,4-dione

> <ALOGPS_LOGP>
1.64

> <JCHEM_LOGP>
1.6651732839999998

> <ALOGPS_LOGS>
-2.35

> <JCHEM_MDDR_LIKE_RULE>
0

> <JCHEM_NUMBER_OF_RINGS>
2

> <JCHEM_PHYSIOLOGICAL_CHARGE>
0

> <JCHEM_PKA_STRONGEST_ACIDIC>
11.179447259247729

> <JCHEM_PKA_STRONGEST_BASIC>
-8.139137354400296

> <JCHEM_POLAR_SURFACE_AREA>
49.410000000000004

> <JCHEM_REFRACTIVITY>
59.53800000000001

> <JCHEM_ROTATABLE_BOND_COUNT>
2

> <JCHEM_RULE_OF_FIVE>
1

> <ALOGPS_SOLUBILITY>
9.70e-01 g/l

> <JCHEM_TRADITIONAL_IUPAC>
mephenytoin

> <JCHEM_VEBER_RULE>
0

> <DRUGBANK_ID>
DB00532

> <SECONDARY_ACCESSION_NUMBERS>
APRD00512

> <DRUG_GROUPS>
approved; investigational; withdrawn

> <GENERIC_NAME>
Mephenytoin

> <SYNONYMS>
mefenitoína; Mephenytoin

> <PRODUCTS>
Mesantoin

$$$$
533
  Mrv0541 02231214452D          

 22 24  0  0  0  0            999 V2000
    4.6713   -2.2060    0.0000 S   0  0  0  0  0  0  0  0  0  0  0  0
    5.0838    2.3636    0.0000 O   0  0  0  0  0  0  0  0  0  0  0  0
    3.7739    3.0310    0.0000 O   0  0  0  0  0  0  0  0  0  0  0  0
    3.8463   -2.2060    0.0000 O   0  0  0  0  0  0  0  0  0  0  0  0
    5.4963   -2.2060    0.0000 O   0  0  0  0  0  0  0  0  0  0  0  0
    4.6713    1.0940    0.0000 C   0  0  0  0  0  0  0  0  0  0  0  0
    4.6713    0.2690    0.0000 C   0  0  0  0  0  0  0  0  0  0  0  0
    4.0039    1.5790    0.0000 C   0  0  0  0  0  0  0  0  0  0  0  0
    5.3388    1.5790    0.0000 C   0  0  0  0  0  0  0  0  0  0  0  0
    4.6713   -1.3810    0.0000 C   0  0  0  0  0  0  0  0  0  0  0  0
    3.2192    1.3240    0.0000 C   0  0  0  0  0  0  0  0  0  0  0  0
    5.3858   -0.1435    0.0000 C   0  0  0  0  0  0  0  0  0  0  0  0
    3.9569   -0.1435    0.0000 C   0  0  0  0  0  0  0  0  0  0  0  0
    4.2588    2.3636    0.0000 C   0  0  0  0  0  0  0  0  0  0  0  0
    5.3858   -0.9685    0.0000 C   0  0  0  0  0  0  0  0  0  0  0  0
    3.9569   -0.9685    0.0000 C   0  0  0  0  0  0  0  0  0  0  0  0
    3.0477    0.5170    0.0000 C   0  0  0  0  0  0  0  0  0  0  0  0
    2.6062    1.8761    0.0000 C   0  0  0  0  0  0  0  0  0  0  0  0
    4.6713   -3.0310    0.0000 C   0  0  0  0  0  0  0  0  0  0  0  0
    2.2631    0.2621    0.0000 C   0  0  0  0  0  0  0  0  0  0  0  0
    1.8215    1.6211    0.0000 C   0  0  0  0  0  0  0  0  0  0  0  0
    1.6500    0.8141    0.0000 C   0  0  0  0  0  0  0  0  0  0  0  0
  1  4  2  0  0  0  0
  1  5  2  0  0  0  0
  1 10  1  0  0  0  0
  1 19  1  0  0  0  0
  2  9  1  0  0  0  0
  2 14  1  0  0  0  0
  3 14  2  0  0  0  0
  6  7  1  0  0  0  0
  6  8  2  0  0  0  0
  6  9  1  0  0  0  0
  7 12  2  0  0  0  0
  7 13  1  0  0  0  0
  8 11  1  0  0  0  0
  8 14  1  0  0  0  0
 10 15  2  0  0  0  0
 10 16  1  0  0  0  0
 11 17  2  0  0  0  0
 11 18  1  0  0  0  0
 12 15  1  0  0  0  0
 13 16  2  0  0  0  0
 17 20  1  0  0  0  0
 18 21  2  0  0  0  0
 20 22  2  0  0  0  0
 21 22  1  0  0  0  0
M  END
> <DATABASE_ID>
DB00533

> <DATABASE_NAME>
drugbank

> <SMILES>
CS(=O)(=O)C1=CC=C(C=C1)C1=C(C(=O)OC1)C1=CC=CC=C1

> <INCHI_IDENTIFIER>
InChI=1S/C17H14O4S/c1-22(19,20)14-9-7-12(8-10-14)15-11-21-17(18)16(15)13-5-3-2-4-6-13/h2-10H,11H2,1H3

> <INCHI_KEY>
RZJQGNCSTQAWON-UHFFFAOYSA-N

> <FORMULA>
C17H14O4S

> <MOLECULAR_WEIGHT>
314.356

> <EXACT_MASS>
314.061279626

> <JCHEM_ACCEPTOR_COUNT>
3

> <JCHEM_AVERAGE_POLARIZABILITY>
31.740003193897877

> <JCHEM_BIOAVAILABILITY>
1

> <JCHEM_DONOR_COUNT>
0

> <JCHEM_FORMAL_CHARGE>
0

> <JCHEM_GHOSE_FILTER>
1

> <JCHEM_IUPAC>
4-(4-methanesulfonylphenyl)-3-phenyl-2,5-dihydrofuran-2-one

> <ALOGPS_LOGP>
2.32

> <JCHEM_LOGP>
2.560910504

> <ALOGPS_LOGS>
-4.47

> <JCHEM_MDDR_LIKE_RULE>
0

> <JCHEM_NUMBER_OF_RINGS>
3

> <JCHEM_PHYSIOLOGICAL_CHARGE>
0

> <JCHEM_PKA>
19.70337896181357

> <JCHEM_PKA_STRONGEST_ACIDIC>
14.839776870549493

> <JCHEM_PKA_STRONGEST_BASIC>
-6.993318649694412

> <JCHEM_POLAR_SURFACE_AREA>
60.440000000000005

> <JCHEM_REFRACTIVITY>
84.08010000000003

> <JCHEM_ROTATABLE_BOND_COUNT>
3

> <JCHEM_RULE_OF_FIVE>
1

> <ALOGPS_SOLUBILITY>
1.06e-02 g/l

> <JCHEM_TRADITIONAL_IUPAC>
rofecoxib

> <JCHEM_VEBER_RULE>
0

> <DRUGBANK_ID>
DB00533

> <SECONDARY_ACCESSION_NUMBERS>
APRD00151

> <DRUG_GROUPS>
approved; investigational; withdrawn

> <GENERIC_NAME>
Rofecoxib

> <SYNONYMS>
3-phenyl-4-[4-(methylsulfonyl)phenyl]-2(5H)-furanone; 4-[4-(methylsulfonyl)phenyl]-3-phenyl-2(5H)-furanone; Rofécoxib; Rofecoxib; Rofecoxibum

> <PRODUCTS>
Vioxx Suspension 12.5mg/5ml; Vioxx Tab 12.5mg; Vioxx Tab 25mg

> <INTERNATIONAL_BRANDS>
Vioxx

$$$$
534
  Mrv0541 02231214452D          

 11 10  0  0  1  0            999 V2000
    3.1019    0.8631    0.0000 Hg  0  0  0  0  0  0  0  0  0  0  0  0
    2.7440    1.6063    0.0000 Cl  0  0  0  0  0  0  0  0  0  0  0  0
    5.2456    0.4017    0.0000 O   0  0  0  0  0  0  0  0  0  0  0  0
    2.5876    0.2181    0.0000 O   0  0  0  0  0  0  0  0  0  0  0  0
    3.5143   -0.9442    0.0000 N   0  0  0  0  0  0  0  0  0  0  0  0
    2.1260   -1.1006    0.0000 N   0  0  0  0  0  0  0  0  0  0  0  0
    4.4412    0.2181    0.0000 C   0  0  0  0  0  0  0  0  0  0  0  0
    4.2577   -0.5863    0.0000 C   0  0  0  0  0  0  0  0  0  0  0  0
    3.9268    0.8631    0.0000 C   0  0  0  0  0  0  0  0  0  0  0  0
    2.7711   -0.5863    0.0000 C   0  0  0  0  0  0  0  0  0  0  0  0
    5.4887    1.1899    0.0000 C   0  0  0  0  0  0  0  0  0  0  0  0
  1  2  1  0  0  0  0
  1  9  1  0  0  0  0
  3  7  1  0  0  0  0
  3 11  1  0  0  0  0
  4 10  2  0  0  0  0
  5  8  1  0  0  0  0
  5 10  1  0  0  0  0
  6 10  1  0  0  0  0
  7  8  1  0  0  0  0
  7  9  1  0  0  0  0
M  END
> <DATABASE_ID>
DB00534

> <DATABASE_NAME>
drugbank

> <SMILES>
COC(CNC(N)=O)C[Hg]Cl

> <INCHI_IDENTIFIER>
InChI=1S/C5H11N2O2.ClH.Hg/c1-4(9-2)3-7-5(6)8;;/h4H,1,3H2,2H3,(H3,6,7,8);1H;/q;;+1/p-1

> <INCHI_KEY>
BJFGVYCULWBXKF-UHFFFAOYSA-M

> <FORMULA>
C5H11ClHgN2O2

> <MOLECULAR_WEIGHT>
367.2

> <EXACT_MASS>
368.021530917

> <JCHEM_ACCEPTOR_COUNT>
2

> <JCHEM_AVERAGE_POLARIZABILITY>
18.418085240221338

> <JCHEM_BIOAVAILABILITY>
1

> <JCHEM_DONOR_COUNT>
2

> <JCHEM_FORMAL_CHARGE>
0

> <JCHEM_GHOSE_FILTER>
0

> <JCHEM_IUPAC>
[3-(chloromercurio)-2-methoxypropyl]urea

> <ALOGPS_LOGP>
-0.50

> <JCHEM_LOGP>
-0.8584000000000003

> <ALOGPS_LOGS>
-1.10

> <JCHEM_MDDR_LIKE_RULE>
0

> <JCHEM_NUMBER_OF_RINGS>
0

> <JCHEM_PHYSIOLOGICAL_CHARGE>
0

> <JCHEM_PKA_STRONGEST_ACIDIC>
14.047456708629223

> <JCHEM_PKA_STRONGEST_BASIC>
-1.8296842932802875

> <JCHEM_POLAR_SURFACE_AREA>
64.35

> <JCHEM_REFRACTIVITY>
38.783

> <JCHEM_ROTATABLE_BOND_COUNT>
5

> <JCHEM_RULE_OF_FIVE>
1

> <ALOGPS_SOLUBILITY>
2.92e+01 g/l

> <JCHEM_TRADITIONAL_IUPAC>
chlormerodrin

> <JCHEM_VEBER_RULE>
0

> <DRUGBANK_ID>
DB00534

> <SECONDARY_ACCESSION_NUMBERS>
APRD00864

> <DRUG_GROUPS>
approved; withdrawn

> <GENERIC_NAME>
Chlormerodrin

> <SYNONYMS>
{3-[(aminocarbonyl)amino]-2-methoxypropyl}chloromercury; 1-[3-(chloromercuri)-2-methoxypropyl]urea; Chlormerodrin; Chlormerodrina; Chlormerodrine; Chlormerodrinum

> <INTERNATIONAL_BRANDS>
Mercloran; Ormerdan

$$$$

  Mrv1909 06282015402D          

 16 16  0  0  0  0            999 V2000
   -1.7834   -0.8248    0.0000 C   0  0  0  0  0  0  0  0  0  0  0  0
   -1.0690   -0.4123    0.0000 C   0  0  0  0  0  0  0  0  0  0  0  0
   -0.3545   -0.8248    0.0000 C   0  0  0  0  0  0  0  0  0  0  0  0
    0.3598   -0.4123    0.0000 C   0  0  0  0  0  0  0  0  0  0  0  0
   -1.7834   -1.6500    0.0000 F   0  0  0  0  0  0  0  0  0  0  0  0
   -2.4980   -0.4123    0.0000 F   0  0  0  0  0  0  0  0  0  0  0  0
    1.0743   -0.8248    0.0000 C   0  0  0  0  0  0  0  0  0  0  0  0
    1.7888    0.4125    0.0000 N   0  0  0  0  0  0  0  0  0  0  0  0
   -1.0690    0.4125    0.0000 C   0  0  0  0  0  0  0  0  0  0  0  0
    1.7888   -0.4123    0.0000 C   0  0  0  0  0  0  0  0  0  0  0  0
   -0.3545    0.8250    0.0000 C   0  0  0  0  0  0  0  0  0  0  0  0
    0.3598    0.4125    0.0000 C   0  0  0  0  0  0  0  0  0  0  0  0
    2.5034   -0.8248    0.0000 C   0  0  0  0  0  0  0  0  0  0  0  0
   -2.5034   -1.2442    0.0000 F   0  0  0  0  0  0  0  0  0  0  0  0
    1.0743    0.8250    0.0000 C   0  0  0  0  0  0  0  0  0  0  0  0
    1.0743    1.6500    0.0000 C   0  0  0  0  0  0  0  0  0  0  0  0
  2  1  1  0  0  0  0
  5  1  1  0  0  0  0
  6  1  1  0  0  0  0
  3  2  2  0  0  0  0
  9  2  1  0  0  0  0
  4  3  1  0  0  0  0
  7  4  1  0  0  0  0
 12  4  2  0  0  0  0
 10  7  1  0  0  0  0
 10  8  1  0  0  0  0
 11  9  2  0  0  0  0
 13 10  1  0  0  0  0
 12 11  1  0  0  0  0
  1 14  1  0  0  0  0
  8 15  1  0  0  0  0
 15 16  1  0  0  0  0
M  END
> <DATABASE_ID>
DB00574

> <DATABASE_NAME>
drugbank

> <SMILES>
CCNC(C)CC1=CC=CC(=C1)C(F)(F)F

> <INCHI_IDENTIFIER>
InChI=1S/C12H16F3N/c1-3-16-9(2)7-10-5-4-6-11(8-10)12(13,14)15/h4-6,8-9,16H,3,7H2,1-2H3

> <INCHI_KEY>
DBGIVFWFUFKIQN-UHFFFAOYSA-N

> <FORMULA>
C12H16F3N

> <MOLECULAR_WEIGHT>
231.2573

> <EXACT_MASS>
231.123484132

> <JCHEM_ACCEPTOR_COUNT>
1

> <JCHEM_ATOM_COUNT>
32

> <JCHEM_AVERAGE_NEUTRAL_MICROSPECIES_CHARGE>
0.9999999999391044

> <JCHEM_AVERAGE_POLARIZABILITY>
22.685157655315663

> <JCHEM_BIOAVAILABILITY>
1

> <JCHEM_DONOR_COUNT>
1

> <JCHEM_FORMAL_CHARGE>
0

> <JCHEM_GHOSE_FILTER>
1

> <JCHEM_IUPAC>
ethyl({1-[3-(trifluoromethyl)phenyl]propan-2-yl})amine

> <ALOGPS_LOGP>
3.30

> <JCHEM_LOGP>
3.4714873116666665

> <ALOGPS_LOGS>
-4.03

> <JCHEM_MDDR_LIKE_RULE>
0

> <JCHEM_NEUTRAL_CHARGE>
1

> <JCHEM_NUMBER_OF_RINGS>
1

> <JCHEM_PHYSIOLOGICAL_CHARGE>
1

> <JCHEM_PKA_STRONGEST_BASIC>
10.215413995825989

> <JCHEM_POLAR_SURFACE_AREA>
12.03

> <JCHEM_REFRACTIVITY>
59.2021

> <JCHEM_ROTATABLE_BOND_COUNT>
5

> <JCHEM_RULE_OF_FIVE>
1

> <ALOGPS_SOLUBILITY>
2.15e-02 g/l

> <JCHEM_TRADITIONAL_IUPAC>
fenfluramine

> <JCHEM_VEBER_RULE>
1

> <DRUGBANK_ID>
DB00574

> <SECONDARY_ACCESSION_NUMBERS>
APRD00319

> <DRUG_GROUPS>
approved; illicit; investigational; withdrawn

> <GENERIC_NAME>
Fenfluramine

> <SYNONYMS>
(±)-fenfluramine; 1-(m-trifluoromethyl-phenyl)-2-ethylaminopropane; DL-Fenfluramine; Fenfluramina; Fenfluramine; Fenfluraminum

> <PRODUCTS>
Fintepla; Pondimin Tab 20mg

> <INTERNATIONAL_BRANDS>
Adifax; Obedrex; Ponderax; Ponderax PA; Pondimin; Rotondin

> <SALTS>
Fenfluramine hydrochloride

$$$$
580
  Mrv0541 02231214472D          

 22 24  0  0  0  0            999 V2000
    3.1021   -1.7444    0.0000 S   0  0  0  0  0  0  0  0  0  0  0  0
    2.6896    2.8251    0.0000 O   0  0  0  0  0  0  0  0  0  0  0  0
    3.9271   -1.7444    0.0000 O   0  0  0  0  0  0  0  0  0  0  0  0
    2.2771   -1.7444    0.0000 O   0  0  0  0  0  0  0  0  0  0  0  0
    3.5146    2.8251    0.0000 N   0  0  0  0  0  0  0  0  0  0  0  0
    3.1021   -2.5694    0.0000 N   0  0  0  0  0  0  0  0  0  0  0  0
    3.1021    1.5556    0.0000 C   0  0  0  0  0  0  0  0  0  0  0  0
    3.1021    0.7306    0.0000 C   0  0  0  0  0  0  0  0  0  0  0  0
    3.7695    2.0406    0.0000 C   0  0  0  0  0  0  0  0  0  0  0  0
    2.4347    2.0406    0.0000 C   0  0  0  0  0  0  0  0  0  0  0  0
    3.1021   -0.9194    0.0000 C   0  0  0  0  0  0  0  0  0  0  0  0
    3.8166    0.3181    0.0000 C   0  0  0  0  0  0  0  0  0  0  0  0
    2.3876    0.3181    0.0000 C   0  0  0  0  0  0  0  0  0  0  0  0
    4.5541    1.7856    0.0000 C   0  0  0  0  0  0  0  0  0  0  0  0
    3.8166   -0.5069    0.0000 C   0  0  0  0  0  0  0  0  0  0  0  0
    2.3876   -0.5069    0.0000 C   0  0  0  0  0  0  0  0  0  0  0  0
    1.6500    1.7856    0.0000 C   0  0  0  0  0  0  0  0  0  0  0  0
    5.1672    2.3376    0.0000 C   0  0  0  0  0  0  0  0  0  0  0  0
    4.7257    0.9786    0.0000 C   0  0  0  0  0  0  0  0  0  0  0  0
    5.9518    2.0827    0.0000 C   0  0  0  0  0  0  0  0  0  0  0  0
    5.5103    0.7237    0.0000 C   0  0  0  0  0  0  0  0  0  0  0  0
    6.1234    1.2757    0.0000 C   0  0  0  0  0  0  0  0  0  0  0  0
  1  3  2  0  0  0  0
  1  4  2  0  0  0  0
  1  6  1  0  0  0  0
  1 11  1  0  0  0  0
  2  5  1  0  0  0  0
  2 10  1  0  0  0  0
  5  9  2  0  0  0  0
  7  8  1  0  0  0  0
  7  9  1  0  0  0  0
  7 10  2  0  0  0  0
  8 12  2  0  0  0  0
  8 13  1  0  0  0  0
  9 14  1  0  0  0  0
 10 17  1  0  0  0  0
 11 15  2  0  0  0  0
 11 16  1  0  0  0  0
 12 15  1  0  0  0  0
 13 16  2  0  0  0  0
 14 18  2  0  0  0  0
 14 19  1  0  0  0  0
 18 20  1  0  0  0  0
 19 21  2  0  0  0  0
 20 22  2  0  0  0  0
 21 22  1  0  0  0  0
M  END
> <DATABASE_ID>
DB00580

> <DATABASE_NAME>
drugbank

> <SMILES>
CC1=C(C(=NO1)C1=CC=CC=C1)C1=CC=C(C=C1)S(N)(=O)=O

> <INCHI_IDENTIFIER>
InChI=1S/C16H14N2O3S/c1-11-15(12-7-9-14(10-8-12)22(17,19)20)16(18-21-11)13-5-3-2-4-6-13/h2-10H,1H3,(H2,17,19,20)

> <INCHI_KEY>
LNPDTQAFDNKSHK-UHFFFAOYSA-N

> <FORMULA>
C16H14N2O3S

> <MOLECULAR_WEIGHT>
314.359

> <EXACT_MASS>
314.072513014

> <JCHEM_ACCEPTOR_COUNT>
3

> <JCHEM_AVERAGE_POLARIZABILITY>
31.76425043343251

> <JCHEM_BIOAVAILABILITY>
1

> <JCHEM_DONOR_COUNT>
1

> <JCHEM_FORMAL_CHARGE>
0

> <JCHEM_GHOSE_FILTER>
1

> <JCHEM_IUPAC>
4-(5-methyl-3-phenyl-1,2-oxazol-4-yl)benzene-1-sulfonamide

> <ALOGPS_LOGP>
3.32

> <JCHEM_LOGP>
2.8236843580000004

> <ALOGPS_LOGS>
-3.96

> <JCHEM_MDDR_LIKE_RULE>
0

> <JCHEM_NUMBER_OF_RINGS>
3

> <JCHEM_PHYSIOLOGICAL_CHARGE>
0

> <JCHEM_PKA_STRONGEST_ACIDIC>
10.057539239950927

> <JCHEM_PKA_STRONGEST_BASIC>
0.41767462897919727

> <JCHEM_POLAR_SURFACE_AREA>
86.19

> <JCHEM_REFRACTIVITY>
84.70800000000001

> <JCHEM_ROTATABLE_BOND_COUNT>
3

> <JCHEM_RULE_OF_FIVE>
1

> <ALOGPS_SOLUBILITY>
3.48e-02 g/l

> <JCHEM_TRADITIONAL_IUPAC>
valdecoxib

> <JCHEM_VEBER_RULE>
0

> <DRUGBANK_ID>
DB00580

> <SECONDARY_ACCESSION_NUMBERS>
APRD00183; DB07576

> <DRUG_GROUPS>
approved; investigational; withdrawn

> <GENERIC_NAME>
Valdecoxib

> <SYNONYMS>
Valdecoxib

> <PRODUCTS>
Bextra

$$$$

  Mrv0541 04191212132D          

 32 34  0  0  1  0            999 V2000
    7.7581   -7.2907    0.0000 C   0  0  0  0  0  0  0  0  0  0  0  0
    8.4726   -6.8782    0.0000 C   0  0  0  0  0  0  0  0  0  0  0  0
    7.0436   -6.8782    0.0000 C   0  0  0  0  0  0  0  0  0  0  0  0
    9.1789   -7.2858    0.0000 N   0  0  0  0  0  0  0  0  0  0  0  0
    7.7581   -8.1157    0.0000 C   0  0  0  0  0  0  0  0  0  0  0  0
    6.3292   -7.2907    0.0000 C   0  0  0  0  0  0  0  0  0  0  0  0
    9.1781   -8.1108    0.0000 C   0  0  1  0  0  0  0  0  0  0  0  0
    7.0436   -8.5282    0.0000 C   0  0  0  0  0  0  0  0  0  0  0  0
    9.8922   -8.5240    0.0000 C   0  0  2  0  0  0  0  0  0  0  0  0
    6.3292   -8.1157    0.0000 C   0  0  0  0  0  0  0  0  0  0  0  0
    9.1766   -9.7608    0.0000 N   0  0  0  0  0  0  0  0  0  0  0  0
    9.8914   -9.3490    0.0000 C   0  0  0  0  0  0  0  0  0  0  0  0
    8.4633   -8.5226    0.0000 C   0  0  0  0  0  0  0  0  0  0  0  0
    8.4726   -6.0532    0.0000 O   0  0  0  0  0  0  0  0  0  0  0  0
    8.4625   -9.3476    0.0000 C   0  0  0  0  0  0  0  0  0  0  0  0
    5.6147   -8.5282    0.0000 N   0  0  0  0  0  0  0  0  0  0  0  0
    7.0436   -9.3532    0.0000 Cl  0  0  0  0  0  0  0  0  0  0  0  0
    7.0436   -6.0532    0.0000 O   0  0  0  0  0  0  0  0  0  0  0  0
   13.4634   -9.7650    0.0000 C   0  0  0  0  0  0  0  0  0  0  0  0
   10.6071   -8.1122    0.0000 O   0  0  0  0  0  0  0  0  0  0  0  0
   12.0337  -10.5886    0.0000 C   0  0  0  0  0  0  0  0  0  0  0  0
   14.1783   -9.3532    0.0000 F   0  0  0  0  0  0  0  0  0  0  0  0
   12.7493   -9.3517    0.0000 C   0  0  0  0  0  0  0  0  0  0  0  0
   13.4626  -10.5899    0.0000 C   0  0  0  0  0  0  0  0  0  0  0  0
   12.0345   -9.7636    0.0000 C   0  0  0  0  0  0  0  0  0  0  0  0
   12.7477  -11.0018    0.0000 C   0  0  0  0  0  0  0  0  0  0  0  0
    9.1758  -10.5858    0.0000 C   0  0  0  0  0  0  0  0  0  0  0  0
    9.8899  -10.9990    0.0000 C   0  0  0  0  0  0  0  0  0  0  0  0
   11.3188  -11.0004    0.0000 O   0  0  0  0  0  0  0  0  0  0  0  0
   10.6047  -10.5872    0.0000 C   0  0  0  0  0  0  0  0  0  0  0  0
    6.3292   -5.6407    0.0000 C   0  0  0  0  0  0  0  0  0  0  0  0
   11.3211   -8.5254    0.0000 C   0  0  0  0  0  0  0  0  0  0  0  0
  2  1  1  0  0  0  0
  3  1  1  0  0  0  0
  5  1  2  0  0  0  0
  4  2  1  0  0  0  0
 14  2  2  0  0  0  0
  6  3  2  0  0  0  0
 18  3  1  0  0  0  0
  7  4  1  1  0  0  0
  8  5  1  0  0  0  0
 10  6  1  0  0  0  0
  9  7  1  0  0  0  0
 13  7  1  0  0  0  0
 10  8  2  0  0  0  0
 17  8  1  0  0  0  0
 12  9  1  0  0  0  0
  9 20  1  1  0  0  0
 16 10  1  0  0  0  0
 15 11  1  0  0  0  0
 27 11  1  0  0  0  0
 12 11  1  0  0  0  0
 15 13  1  0  0  0  0
 31 18  1  0  0  0  0
 24 19  1  0  0  0  0
 22 19  1  0  0  0  0
 23 19  2  0  0  0  0
 32 20  1  0  0  0  0
 29 21  1  0  0  0  0
 25 21  2  0  0  0  0
 26 21  1  0  0  0  0
 25 23  1  0  0  0  0
 26 24  2  0  0  0  0
 28 27  1  0  0  0  0
 30 28  1  0  0  0  0
 30 29  1  0  0  0  0
M  END
> <DATABASE_ID>
DB00604

> <DATABASE_NAME>
drugbank

> <SMILES>
CO[C@H]1CN(CCCOC2=CC=C(F)C=C2)CC[C@H]1NC(=O)C1=CC(Cl)=C(N)C=C1OC

> <INCHI_IDENTIFIER>
InChI=1S/C23H29ClFN3O4/c1-30-21-13-19(26)18(24)12-17(21)23(29)27-20-8-10-28(14-22(20)31-2)9-3-11-32-16-6-4-15(25)5-7-16/h4-7,12-13,20,22H,3,8-11,14,26H2,1-2H3,(H,27,29)/t20-,22+/m1/s1

> <INCHI_KEY>
DCSUBABJRXZOMT-IRLDBZIGSA-N

> <FORMULA>
C23H29ClFN3O4

> <MOLECULAR_WEIGHT>
465.945

> <EXACT_MASS>
465.183062343

> <JCHEM_ACCEPTOR_COUNT>
6

> <JCHEM_AVERAGE_POLARIZABILITY>
49.11181362713439

> <JCHEM_BIOAVAILABILITY>
1

> <JCHEM_DONOR_COUNT>
2

> <JCHEM_FORMAL_CHARGE>
0

> <JCHEM_GHOSE_FILTER>
1

> <JCHEM_IUPAC>
4-amino-5-chloro-N-[(3S,4R)-1-[3-(4-fluorophenoxy)propyl]-3-methoxypiperidin-4-yl]-2-methoxybenzamide

> <ALOGPS_LOGP>
2.95

> <JCHEM_LOGP>
2.491358864666666

> <ALOGPS_LOGS>
-4.59

> <JCHEM_MDDR_LIKE_RULE>
1

> <JCHEM_NUMBER_OF_RINGS>
3

> <JCHEM_PHYSIOLOGICAL_CHARGE>
1

> <JCHEM_PKA>
18.768892546739217

> <JCHEM_PKA_STRONGEST_ACIDIC>
14.575677583907808

> <JCHEM_PKA_STRONGEST_BASIC>
8.239418549799563

> <JCHEM_POLAR_SURFACE_AREA>
86.05000000000001

> <JCHEM_REFRACTIVITY>
122.9349

> <JCHEM_ROTATABLE_BOND_COUNT>
9

> <JCHEM_RULE_OF_FIVE>
1

> <ALOGPS_SOLUBILITY>
1.20e-02 g/l

> <JCHEM_TRADITIONAL_IUPAC>
(+-)-cisapride

> <JCHEM_VEBER_RULE>
0

> <DRUGBANK_ID>
DB00604

> <SECONDARY_ACCESSION_NUMBERS>
APRD00454

> <DRUG_GROUPS>
approved; investigational; withdrawn

> <GENERIC_NAME>
Cisapride

> <SYNONYMS>
Cisaprid; Cisaprida; Cisapride; Cisapridum

> <PRODUCTS>
Prepulsid Sus 1mg/ml; Prepulsid Tab 10mg; Prepulsid Tab 20mg; Prepulsid Tab 5mg; Propulsid

> <INTERNATIONAL_BRANDS>
Enteropride; Kinestase; Prepulsid; Pridesia; Propulsid Quicksolv

> <SALTS>
Cisapride monohydrate

$$$$
637
  Mrv0541 02231214502D          

 34 38  0  0  0  0            999 V2000
    1.9121    4.8101    0.0000 F   0  0  0  0  0  0  0  0  0  0  0  0
    9.2913   -4.8101    0.0000 O   0  0  0  0  0  0  0  0  0  0  0  0
    6.4037   -1.2377    0.0000 N   0  0  0  0  0  0  0  0  0  0  0  0
    5.1662    0.9058    0.0000 N   0  0  0  0  0  0  0  0  0  0  0  0
    3.8597    1.5697    0.0000 N   0  0  0  0  0  0  0  0  0  0  0  0
    3.8597    0.2418    0.0000 N   0  0  0  0  0  0  0  0  0  0  0  0
    5.5787    0.1912    0.0000 C   0  0  0  0  0  0  0  0  0  0  0  0
    5.1662   -0.5232    0.0000 C   0  0  0  0  0  0  0  0  0  0  0  0
    6.4037    0.1912    0.0000 C   0  0  0  0  0  0  0  0  0  0  0  0
    5.5787   -1.2377    0.0000 C   0  0  0  0  0  0  0  0  0  0  0  0
    6.8162   -0.5232    0.0000 C   0  0  0  0  0  0  0  0  0  0  0  0
    6.8162   -1.9522    0.0000 C   0  0  0  0  0  0  0  0  0  0  0  0
    7.6412   -1.9522    0.0000 C   0  0  0  0  0  0  0  0  0  0  0  0
    4.3412    0.9058    0.0000 C   0  0  0  0  0  0  0  0  0  0  0  0
    8.0537   -2.6667    0.0000 C   0  0  0  0  0  0  0  0  0  0  0  0
    3.0791    1.3183    0.0000 C   0  0  0  0  0  0  0  0  0  0  0  0
    4.1159    2.3539    0.0000 C   0  0  0  0  0  0  0  0  0  0  0  0
    3.0791    0.4933    0.0000 C   0  0  0  0  0  0  0  0  0  0  0  0
    2.3645    1.7308    0.0000 C   0  0  0  0  0  0  0  0  0  0  0  0
    3.5650    2.9679    0.0000 C   0  0  0  0  0  0  0  0  0  0  0  0
    8.8788   -2.6667    0.0000 C   0  0  0  0  0  0  0  0  0  0  0  0
    7.6412   -3.3812    0.0000 C   0  0  0  0  0  0  0  0  0  0  0  0
    2.3645    0.0808    0.0000 C   0  0  0  0  0  0  0  0  0  0  0  0
    1.6500    1.3183    0.0000 C   0  0  0  0  0  0  0  0  0  0  0  0
    1.6500    0.4933    0.0000 C   0  0  0  0  0  0  0  0  0  0  0  0
    9.2913   -3.3812    0.0000 C   0  0  0  0  0  0  0  0  0  0  0  0
    8.0537   -4.0956    0.0000 C   0  0  0  0  0  0  0  0  0  0  0  0
    2.7577    2.7978    0.0000 C   0  0  0  0  0  0  0  0  0  0  0  0
    3.8213    3.7521    0.0000 C   0  0  0  0  0  0  0  0  0  0  0  0
    8.8788   -4.0956    0.0000 C   0  0  0  0  0  0  0  0  0  0  0  0
    2.2067    3.4119    0.0000 C   0  0  0  0  0  0  0  0  0  0  0  0
    3.2703    4.3662    0.0000 C   0  0  0  0  0  0  0  0  0  0  0  0
    2.4630    4.1960    0.0000 C   0  0  0  0  0  0  0  0  0  0  0  0
   10.1163   -4.8101    0.0000 C   0  0  0  0  0  0  0  0  0  0  0  0
  1 33  1  0  0  0  0
  2 30  1  0  0  0  0
  2 34  1  0  0  0  0
  3 10  1  0  0  0  0
  3 11  1  0  0  0  0
  3 12  1  0  0  0  0
  4  7  1  0  0  0  0
  4 14  1  0  0  0  0
  5 14  1  0  0  0  0
  5 16  1  0  0  0  0
  5 17  1  0  0  0  0
  6 14  2  0  0  0  0
  6 18  1  0  0  0  0
  7  8  1  0  0  0  0
  7  9  1  0  0  0  0
  8 10  1  0  0  0  0
  9 11  1  0  0  0  0
 12 13  1  0  0  0  0
 13 15  1  0  0  0  0
 15 21  2  0  0  0  0
 15 22  1  0  0  0  0
 16 18  1  0  0  0  0
 16 19  2  0  0  0  0
 17 20  1  0  0  0  0
 18 23  2  0  0  0  0
 19 24  1  0  0  0  0
 20 28  2  0  0  0  0
 20 29  1  0  0  0  0
 21 26  1  0  0  0  0
 22 27  2  0  0  0  0
 23 25  1  0  0  0  0
 24 25  2  0  0  0  0
 26 30  2  0  0  0  0
 27 30  1  0  0  0  0
 28 31  1  0  0  0  0
 29 32  2  0  0  0  0
 31 33  2  0  0  0  0
 32 33  1  0  0  0  0
M  END
> <DATABASE_ID>
DB00637

> <DATABASE_NAME>
drugbank

> <SMILES>
COC1=CC=C(CCN2CCC(CC2)NC2=NC3=CC=CC=C3N2CC2=CC=C(F)C=C2)C=C1

> <INCHI_IDENTIFIER>
InChI=1S/C28H31FN4O/c1-34-25-12-8-21(9-13-25)14-17-32-18-15-24(16-19-32)30-28-31-26-4-2-3-5-27(26)33(28)20-22-6-10-23(29)11-7-22/h2-13,24H,14-20H2,1H3,(H,30,31)

> <INCHI_KEY>
GXDALQBWZGODGZ-UHFFFAOYSA-N

> <FORMULA>
C28H31FN4O

> <MOLECULAR_WEIGHT>
458.5703

> <EXACT_MASS>
458.248189839

> <JCHEM_ACCEPTOR_COUNT>
4

> <JCHEM_AVERAGE_POLARIZABILITY>
52.07564222487272

> <JCHEM_BIOAVAILABILITY>
1

> <JCHEM_DONOR_COUNT>
1

> <JCHEM_FORMAL_CHARGE>
0

> <JCHEM_GHOSE_FILTER>
0

> <JCHEM_IUPAC>
1-[(4-fluorophenyl)methyl]-N-{1-[2-(4-methoxyphenyl)ethyl]piperidin-4-yl}-1H-1,3-benzodiazol-2-amine

> <ALOGPS_LOGP>
5.92

> <JCHEM_LOGP>
5.389652434333334

> <ALOGPS_LOGS>
-5.58

> <JCHEM_MDDR_LIKE_RULE>
1

> <JCHEM_NUMBER_OF_RINGS>
5

> <JCHEM_PHYSIOLOGICAL_CHARGE>
1

> <JCHEM_PKA_STRONGEST_BASIC>
8.750819752026988

> <JCHEM_POLAR_SURFACE_AREA>
42.32

> <JCHEM_REFRACTIVITY>
135.64320000000004

> <JCHEM_ROTATABLE_BOND_COUNT>
8

> <JCHEM_RULE_OF_FIVE>
0

> <ALOGPS_SOLUBILITY>
1.20e-03 g/l

> <JCHEM_TRADITIONAL_IUPAC>
astemizole

> <JCHEM_VEBER_RULE>
0

> <DRUGBANK_ID>
DB00637

> <SECONDARY_ACCESSION_NUMBERS>
APRD00585

> <DRUG_GROUPS>
approved; withdrawn

> <GENERIC_NAME>
Astemizole

> <SYNONYMS>
1-(p-Fluorobenzyl)-2-((1-(2-(p-methoxyphenyl)ethyl)piperid-4-yl)amino)benzimidazole; 1-(p-Fluorobenzyl)-2-((1-(p-methoxyphenethyl)-4-piperidyl)amino)benzimidazole; Astemizol; Astémizole; Astemizole; Astemizolum

> <PRODUCTS>
Hismanal - Tab 10mg; Hismanal Suspension 2mg/ml; Hismanal Tab 10mg

> <INTERNATIONAL_BRANDS>
Acemiz; Alerkin; Astemison; Astesen; Hismanal; Histalong; Lergibrumizol; Stemiz

$$$$

  Mrv0541 01151409102D          

 25 26  0  0  0  0            999 V2000
   -1.6205    3.0938    0.0000 C   0  0  0  0  0  0  0  0  0  0  0  0
   -2.3350    2.6812    0.0000 C   0  0  0  0  0  0  0  0  0  0  0  0
   -2.3350    1.8562    0.0000 C   0  0  0  0  0  0  0  0  0  0  0  0
   -1.6205    1.4437    0.0000 C   0  0  0  0  0  0  0  0  0  0  0  0
   -0.9061    1.8562    0.0000 C   0  0  0  0  0  0  0  0  0  0  0  0
   -0.9061    2.6812    0.0000 C   0  0  0  0  0  0  0  0  0  0  0  0
   -1.6205    0.6187    0.0000 C   0  0  2  0  0  0  0  0  0  0  0  0
   -2.3350    0.2062    0.0000 C   0  0  0  0  0  0  0  0  0  0  0  0
   -3.0495    0.6187    0.0000 C   0  0  0  0  0  0  0  0  0  0  0  0
   -3.7639    1.8563    0.0000 C   0  0  0  0  0  0  0  0  0  0  0  0
   -4.4784    1.4438    0.0000 C   0  0  0  0  0  0  0  0  0  0  0  0
   -4.4784    0.6187    0.0000 C   0  0  0  0  0  0  0  0  0  0  0  0
   -3.7639    0.2062    0.0000 C   0  0  0  0  0  0  0  0  0  0  0  0
   -3.0495    1.4438    0.0000 C   0  0  0  0  0  0  0  0  0  0  0  0
   -1.6205   -0.2063    0.0000 C   0  0  1  0  0  0  0  0  0  0  0  0
   -0.9061    0.2062    0.0000 O   0  0  0  0  0  0  0  0  0  0  0  0
   -0.1915    0.6187    0.0000 C   0  0  0  0  0  0  0  0  0  0  0  0
    0.5229    0.2062    0.0000 C   0  0  0  0  0  0  0  0  0  0  0  0
    1.2373    0.6187    0.0000 C   0  0  0  0  0  0  0  0  0  0  0  0
   -0.9061   -0.6188    0.0000 C   0  0  0  0  0  0  0  0  0  0  0  0
   -0.9061   -1.4438    0.0000 N   0  0  0  0  0  0  0  0  0  0  0  0
   -1.6205   -1.8563    0.0000 C   0  0  0  0  0  0  0  0  0  0  0  0
   -0.1915   -1.8563    0.0000 C   0  0  0  0  0  0  0  0  0  0  0  0
   -2.3350   -0.6188    0.0000 C   0  0  0  0  0  0  0  0  0  0  0  0
   -0.1915    1.4437    0.0000 O   0  0  0  0  0  0  0  0  0  0  0  0
  1  2  2  0  0  0  0
  1  6  1  0  0  0  0
  2  3  1  0  0  0  0
  3  4  2  0  0  0  0
  4  5  1  0  0  0  0
  5  6  2  0  0  0  0
  7  4  1  1  0  0  0
  7  8  1  6  0  0  0
  8  9  1  0  0  0  0
 13  9  2  0  0  0  0
  9 14  1  0  0  0  0
 10 11  1  0  0  0  0
 10 14  2  0  0  0  0
 11 12  2  0  0  0  0
 12 13  1  0  0  0  0
  7 15  1  0  0  0  0
  7 16  1  0  0  0  0
 16 17  1  0  0  0  0
 17 18  1  0  0  0  0
 18 19  1  0  0  0  0
 15 20  1  0  0  0  0
 20 21  1  0  0  0  0
 21 22  1  0  0  0  0
 21 23  1  0  0  0  0
 15 24  1  1  0  0  0
 17 25  2  0  0  0  0
M  END
> <DATABASE_ID>
DB00647

> <DATABASE_NAME>
drugbank

> <SMILES>
CCC(=O)O[C@@](CC1=CC=CC=C1)([C@H](C)CN(C)C)C1=CC=CC=C1

> <INCHI_IDENTIFIER>
InChI=1S/C22H29NO2/c1-5-21(24)25-22(18(2)17-23(3)4,20-14-10-7-11-15-20)16-19-12-8-6-9-13-19/h6-15,18H,5,16-17H2,1-4H3/t18-,22+/m1/s1

> <INCHI_KEY>
XLMALTXPSGQGBX-GCJKJVERSA-N

> <FORMULA>
C22H29NO2

> <MOLECULAR_WEIGHT>
339.4712

> <EXACT_MASS>
339.219829177

> <JCHEM_ACCEPTOR_COUNT>
2

> <JCHEM_AVERAGE_POLARIZABILITY>
38.858232426070884

> <JCHEM_BIOAVAILABILITY>
1

> <JCHEM_DONOR_COUNT>
0

> <JCHEM_FORMAL_CHARGE>
0

> <JCHEM_GHOSE_FILTER>
1

> <JCHEM_IUPAC>
(2S,3R)-4-(dimethylamino)-3-methyl-1,2-diphenylbutan-2-yl propanoate

> <ALOGPS_LOGP>
4.06

> <JCHEM_LOGP>
4.902155232666666

> <ALOGPS_LOGS>
-4.91

> <JCHEM_MDDR_LIKE_RULE>
0

> <JCHEM_NUMBER_OF_RINGS>
2

> <JCHEM_PHYSIOLOGICAL_CHARGE>
1

> <JCHEM_PKA_STRONGEST_BASIC>
9.517055044851146

> <JCHEM_POLAR_SURFACE_AREA>
29.54

> <JCHEM_REFRACTIVITY>
102.88059999999999

> <JCHEM_ROTATABLE_BOND_COUNT>
9

> <JCHEM_RULE_OF_FIVE>
1

> <ALOGPS_SOLUBILITY>
4.19e-03 g/l

> <JCHEM_TRADITIONAL_IUPAC>
propoxyphene

> <JCHEM_VEBER_RULE>
1

> <DRUGBANK_ID>
DB00647

> <SECONDARY_ACCESSION_NUMBERS>
APRD00548

> <DRUG_GROUPS>
approved; illicit; investigational; withdrawn

> <GENERIC_NAME>
Dextropropoxyphene

> <SYNONYMS>
d-Propoxyphene; Destropropossifene; Dextropropoxifeno; Dextropropoxyphen; Dextropropoxyphène; Dextropropoxyphene; Dextropropoxyphenum; Dextroproxifeno; Propoxyphene

> <PRODUCTS>
642 Tab; 692 Tab; 692 Tablet; Balacet 325; Darvocet A500; Darvocet N100; Darvocet-N 100; Darvocet-N 50; Darvon; Darvon N Compound Pulvule 405; Darvon-N; Novo-propoxyn Cap 65mg; Novo-propoxyn Compound Cap; Propoxyphene; Propoxyphene Hydrochloride; Propoxyphene Hydrochloride and Acetaminophen; Propoxyphene Napsylate and Acetaminophen; Propoxyphene Napsylate and Acetominophen; Propoxyphene and Acetaminophen; Therapoxyphene 650

> <INTERNATIONAL_BRANDS>
Abalgin; Dacoton; Deprancol; Depronal; Dolene; Doloxene

> <SALTS>
Dextropropoxyphene hydrochloride; Dextropropoxyphene napsylate

$$$$
664
  Mrv0541 02231214542D          

 19 20  0  0  0  0            999 V2000
    2.4751    0.1279    0.0000 S   0  0  0  0  0  0  0  0  0  0  0  0
    1.6500    0.1279    0.0000 O   0  0  0  0  0  0  0  0  0  0  0  0
    3.3001    0.1279    0.0000 O   0  0  0  0  0  0  0  0  0  0  0  0
    2.4751    2.6029    0.0000 O   0  0  0  0  0  0  0  0  0  0  0  0
    2.4751    0.9529    0.0000 N   0  0  0  0  0  0  0  0  0  0  0  0
    3.9041    0.9529    0.0000 N   0  0  0  0  0  0  0  0  0  0  0  0
    2.4751   -3.1722    0.0000 N   0  0  0  0  0  0  0  0  0  0  0  0
    3.9041    2.6029    0.0000 N   0  0  0  0  0  0  0  0  0  0  0  0
    2.4751   -0.6971    0.0000 C   0  0  0  0  0  0  0  0  0  0  0  0
    1.7606   -1.1096    0.0000 C   0  0  0  0  0  0  0  0  0  0  0  0
    3.1895   -1.1096    0.0000 C   0  0  0  0  0  0  0  0  0  0  0  0
    3.1895    1.3654    0.0000 C   0  0  0  0  0  0  0  0  0  0  0  0
    2.4751   -2.3472    0.0000 C   0  0  0  0  0  0  0  0  0  0  0  0
    1.7606   -1.9347    0.0000 C   0  0  0  0  0  0  0  0  0  0  0  0
    3.1895   -1.9347    0.0000 C   0  0  0  0  0  0  0  0  0  0  0  0
    3.1895    2.1904    0.0000 C   0  0  0  0  0  0  0  0  0  0  0  0
    4.6185    1.3654    0.0000 C   0  0  0  0  0  0  0  0  0  0  0  0
    4.6185    2.1904    0.0000 C   0  0  0  0  0  0  0  0  0  0  0  0
    2.4751    3.4280    0.0000 C   0  0  0  0  0  0  0  0  0  0  0  0
  1  2  2  0  0  0  0
  1  3  2  0  0  0  0
  1  5  1  0  0  0  0
  1  9  1  0  0  0  0
  4 16  1  0  0  0  0
  4 19  1  0  0  0  0
  5 12  1  0  0  0  0
  6 12  2  0  0  0  0
  6 17  1  0  0  0  0
  7 13  1  0  0  0  0
  8 16  2  0  0  0  0
  8 18  1  0  0  0  0
  9 10  2  0  0  0  0
  9 11  1  0  0  0  0
 10 14  1  0  0  0  0
 11 15  2  0  0  0  0
 12 16  1  0  0  0  0
 13 14  2  0  0  0  0
 13 15  1  0  0  0  0
 17 18  2  0  0  0  0
M  END
> <DATABASE_ID>
DB00664

> <DATABASE_NAME>
drugbank

> <SMILES>
COC1=NC=CN=C1NS(=O)(=O)C1=CC=C(N)C=C1

> <INCHI_IDENTIFIER>
InChI=1S/C11H12N4O3S/c1-18-11-10(13-6-7-14-11)15-19(16,17)9-4-2-8(12)3-5-9/h2-7H,12H2,1H3,(H,13,15)

> <INCHI_KEY>
KXRZBTAEDBELFD-UHFFFAOYSA-N

> <FORMULA>
C11H12N4O3S

> <MOLECULAR_WEIGHT>
280.303

> <EXACT_MASS>
280.06301096

> <JCHEM_ACCEPTOR_COUNT>
6

> <JCHEM_AVERAGE_POLARIZABILITY>
27.12127477105563

> <JCHEM_BIOAVAILABILITY>
1

> <JCHEM_DONOR_COUNT>
2

> <JCHEM_FORMAL_CHARGE>
0

> <JCHEM_GHOSE_FILTER>
1

> <JCHEM_IUPAC>
4-amino-N-(3-methoxypyrazin-2-yl)benzene-1-sulfonamide

> <ALOGPS_LOGP>
0.41

> <JCHEM_LOGP>
0.2278840863333335

> <ALOGPS_LOGS>
-2.84

> <JCHEM_MDDR_LIKE_RULE>
0

> <JCHEM_NUMBER_OF_RINGS>
2

> <JCHEM_PHYSIOLOGICAL_CHARGE>
-1

> <JCHEM_PKA_STRONGEST_ACIDIC>
5.914239766872234

> <JCHEM_PKA_STRONGEST_BASIC>
1.9754926220992646

> <JCHEM_POLAR_SURFACE_AREA>
107.2

> <JCHEM_REFRACTIVITY>
70.36700000000002

> <JCHEM_ROTATABLE_BOND_COUNT>
3

> <JCHEM_RULE_OF_FIVE>
1

> <ALOGPS_SOLUBILITY>
4.06e-01 g/l

> <JCHEM_TRADITIONAL_IUPAC>
longum

> <JCHEM_VEBER_RULE>
0

> <DRUGBANK_ID>
DB00664

> <SECONDARY_ACCESSION_NUMBERS>
APRD00517

> <DRUG_GROUPS>
approved; withdrawn

> <GENERIC_NAME>
Sulfametopyrazine

> <SYNONYMS>
Solfametopirazina; Sulfalene; Sulfaleno; Sulfalenum; Sulfamethopyrazine

> <INTERNATIONAL_BRANDS>
Kelfizina

$$$$

  Mrv1718001011917332D          

 11 10  0  0  0  0            999 V2000
    0.6822    0.6159    0.0000 P   0  0  0  0  0  0  0  0  0  0  0  0
   -0.1743    0.6159    0.0000 O   0  0  0  0  0  0  0  0  0  0  0  0
    0.6822   -0.2065    0.0000 O   0  0  0  0  0  0  0  0  0  0  0  0
    0.6519    1.4422    0.0000 O   0  0  0  0  0  0  0  0  0  0  0  0
    1.4782    0.6121    0.0000 F   0  0  0  0  0  0  0  0  0  0  0  0
   -1.0537    0.6235    0.0000 C   0  0  0  0  0  0  0  0  0  0  0  0
    0.6822   -1.0328    0.0000 C   0  0  0  0  0  0  0  0  0  0  0  0
   -1.4782    1.3323    0.0000 C   0  0  0  0  0  0  0  0  0  0  0  0
   -1.4517   -0.0966    0.0000 C   0  0  0  0  0  0  0  0  0  0  0  0
   -0.0341   -1.4422    0.0000 C   0  0  0  0  0  0  0  0  0  0  0  0
    1.3949   -1.4422    0.0000 C   0  0  0  0  0  0  0  0  0  0  0  0
  1  2  1  0  0  0  0
  1  3  1  0  0  0  0
  1  4  2  0  0  0  0
  1  5  1  0  0  0  0
  2  6  1  0  0  0  0
  3  7  1  0  0  0  0
  6  8  1  0  0  0  0
  6  9  1  0  0  0  0
  7 10  1  0  0  0  0
  7 11  1  0  0  0  0
M  END
> <DATABASE_ID>
DB00677

> <DATABASE_NAME>
drugbank

> <SMILES>
CC(C)OP(F)(=O)OC(C)C

> <INCHI_IDENTIFIER>
InChI=1S/C6H14FO3P/c1-5(2)9-11(7,8)10-6(3)4/h5-6H,1-4H3

> <INCHI_KEY>
MUCZHBLJLSDCSD-UHFFFAOYSA-N

> <FORMULA>
C6H14FO3P

> <MOLECULAR_WEIGHT>
184.1457

> <EXACT_MASS>
184.066459031

> <JCHEM_ACCEPTOR_COUNT>
1

> <JCHEM_ATOM_COUNT>
25

> <JCHEM_AVERAGE_POLARIZABILITY>
16.818006666032645

> <JCHEM_BIOAVAILABILITY>
1

> <JCHEM_DONOR_COUNT>
0

> <JCHEM_FORMAL_CHARGE>
0

> <JCHEM_GHOSE_FILTER>
1

> <JCHEM_IUPAC>
bis(propan-2-yl) phosphorofluoridate

> <ALOGPS_LOGP>
1.10

> <JCHEM_LOGP>
1.7603906453333336

> <ALOGPS_LOGS>
-1.43

> <JCHEM_MDDR_LIKE_RULE>
0

> <JCHEM_NUMBER_OF_RINGS>
0

> <JCHEM_PHYSIOLOGICAL_CHARGE>
0

> <JCHEM_PKA_STRONGEST_BASIC>
-9.64521439025244

> <JCHEM_POLAR_SURFACE_AREA>
35.53

> <JCHEM_REFRACTIVITY>
40.888000000000005

> <JCHEM_ROTATABLE_BOND_COUNT>
4

> <JCHEM_RULE_OF_FIVE>
1

> <ALOGPS_SOLUBILITY>
6.78e+00 g/l

> <JCHEM_TRADITIONAL_IUPAC>
isoflurophate

> <JCHEM_VEBER_RULE>
1

> <DRUGBANK_ID>
DB00677

> <SECONDARY_ACCESSION_NUMBERS>
APRD00763

> <DRUG_GROUPS>
approved; investigational; withdrawn

> <GENERIC_NAME>
Isoflurophate

> <SYNONYMS>
DFP; Diisopropoxyphosphoryl fluoride; Diisopropyl fluorophosphate; Diisopropyl fluorophosphonate; Diisopropyl phosphofluoridate; Diisopropyl phosphorofluoridate; Diisopropylfluorophosphate; Diisopropylfluorophosphoric acid ester; Diisopropylphosphofluoridate; Diisopropylphosphorofluoridate; Fluorodiisopropyl phosphate; Fluorostigmine; Isofluorphate; Isoflurophate; Isoflurophosphate; Isopropyl fluophosphate; Isopropyl phosphorofluoridate; O,O'-diisopropyl phosphoryl fluoride

> <INTERNATIONAL_BRANDS>
Diflupyl; Floropryl; Fluopryl; Neoglaucit

$$$$
679
  Mrv0541 02231214552D          

 25 28  0  0  1  0            999 V2000
    3.8495   -2.6670    0.0000 S   0  0  0  0  0  0  0  0  0  0  0  0
    6.7619   -0.9970    0.0000 S   0  0  0  0  0  0  0  0  0  0  0  0
    2.4206    1.4580    0.0000 N   0  0  0  0  0  0  0  0  0  0  0  0
    3.8495   -1.0170    0.0000 N   0  0  0  0  0  0  0  0  0  0  0  0
    3.1350    1.0455    0.0000 C   0  0  0  0  0  0  0  0  0  0  0  0
    3.8495    1.4580    0.0000 C   0  0  0  0  0  0  0  0  0  0  0  0
    3.1350    0.2205    0.0000 C   0  0  0  0  0  0  0  0  0  0  0  0
    3.8495    2.2830    0.0000 C   0  0  0  0  0  0  0  0  0  0  0  0
    2.4206    2.2830    0.0000 C   0  0  0  0  0  0  0  0  0  0  0  0
    3.1350    2.6955    0.0000 C   0  0  0  0  0  0  0  0  0  0  0  0
    3.8495   -0.1920    0.0000 C   0  0  0  0  0  0  0  0  0  0  0  0
    1.7061    1.0455    0.0000 C   0  0  0  0  0  0  0  0  0  0  0  0
    4.5640   -1.4295    0.0000 C   0  0  0  0  0  0  0  0  0  0  0  0
    3.1350   -1.4295    0.0000 C   0  0  0  0  0  0  0  0  0  0  0  0
    4.5640   -2.2545    0.0000 C   0  0  0  0  0  0  0  0  0  0  0  0
    3.1350   -2.2545    0.0000 C   0  0  0  0  0  0  0  0  0  0  0  0
    5.3015   -0.9884    0.0000 C   0  0  0  0  0  0  0  0  0  0  0  0
    2.3975   -0.9884    0.0000 C   0  0  0  0  0  0  0  0  0  0  0  0
    5.3015   -2.6955    0.0000 C   0  0  0  0  0  0  0  0  0  0  0  0
    2.3975   -2.6955    0.0000 C   0  0  0  0  0  0  0  0  0  0  0  0
    6.0490   -1.4123    0.0000 C   0  0  0  0  0  0  0  0  0  0  0  0
    1.6500   -1.4123    0.0000 C   0  0  0  0  0  0  0  0  0  0  0  0
    6.0490   -2.2716    0.0000 C   0  0  0  0  0  0  0  0  0  0  0  0
    1.6500   -2.2716    0.0000 C   0  0  0  0  0  0  0  0  0  0  0  0
    7.4779   -1.4068    0.0000 C   0  0  0  0  0  0  0  0  0  0  0  0
  1 15  1  0  0  0  0
  1 16  1  0  0  0  0
  2 21  1  0  0  0  0
  2 25  1  0  0  0  0
  3  5  1  0  0  0  0
  3  9  1  0  0  0  0
  3 12  1  0  0  0  0
  4 11  1  0  0  0  0
  4 13  1  0  0  0  0
  4 14  1  0  0  0  0
  5  6  1  0  0  0  0
  5  7  1  0  0  0  0
  6  8  1  0  0  0  0
  7 11  1  0  0  0  0
  8 10  1  0  0  0  0
  9 10  1  0  0  0  0
 13 15  2  0  0  0  0
 13 17  1  0  0  0  0
 14 16  1  0  0  0  0
 14 18  2  0  0  0  0
 15 19  1  0  0  0  0
 16 20  2  0  0  0  0
 17 21  2  0  0  0  0
 18 22  1  0  0  0  0
 19 23  2  0  0  0  0
 20 24  1  0  0  0  0
 21 23  1  0  0  0  0
 22 24  2  0  0  0  0
M  END
> <DATABASE_ID>
DB00679

> <DATABASE_NAME>
drugbank

> <SMILES>
CSC1=CC2=C(SC3=CC=CC=C3N2CCC2CCCCN2C)C=C1

> <INCHI_IDENTIFIER>
InChI=1S/C21H26N2S2/c1-22-13-6-5-7-16(22)12-14-23-18-8-3-4-9-20(18)25-21-11-10-17(24-2)15-19(21)23/h3-4,8-11,15-16H,5-7,12-14H2,1-2H3

> <INCHI_KEY>
KLBQZWRITKRQQV-UHFFFAOYSA-N

> <FORMULA>
C21H26N2S2

> <MOLECULAR_WEIGHT>
370.575

> <EXACT_MASS>
370.153740222

> <JCHEM_ACCEPTOR_COUNT>
2

> <JCHEM_AVERAGE_POLARIZABILITY>
43.2570033792346

> <JCHEM_BIOAVAILABILITY>
1

> <JCHEM_DONOR_COUNT>
0

> <JCHEM_FORMAL_CHARGE>
0

> <JCHEM_GHOSE_FILTER>
1

> <JCHEM_IUPAC>
10-[2-(1-methylpiperidin-2-yl)ethyl]-2-(methylsulfanyl)-10H-phenothiazine

> <ALOGPS_LOGP>
5.93

> <JCHEM_LOGP>
5.469305906000001

> <ALOGPS_LOGS>
-5.64

> <JCHEM_MDDR_LIKE_RULE>
0

> <JCHEM_NUMBER_OF_RINGS>
4

> <JCHEM_PHYSIOLOGICAL_CHARGE>
1

> <JCHEM_PKA_STRONGEST_BASIC>
8.927985751271668

> <JCHEM_POLAR_SURFACE_AREA>
6.48

> <JCHEM_REFRACTIVITY>
113.52260000000001

> <JCHEM_ROTATABLE_BOND_COUNT>
4

> <JCHEM_RULE_OF_FIVE>
0

> <ALOGPS_SOLUBILITY>
8.55e-04 g/l

> <JCHEM_TRADITIONAL_IUPAC>
thioridazine

> <JCHEM_VEBER_RULE>
1

> <DRUGBANK_ID>
DB00679

> <SECONDARY_ACCESSION_NUMBERS>
APRD00596

> <DRUG_GROUPS>
approved; withdrawn

> <GENERIC_NAME>
Thioridazine

> <SYNONYMS>
10-[2-(1-methyl-2-piperidyl)ethyl]-2-methylsulfanyl-phenothiazine; 2-Methylmercapto-10-(2-(N-methyl-2-piperidyl)ethyl)phenothiazine; 3-Methylmercapto-N-(2'-(N-methyl-2-piperidyl)ethyl)phenothiazine; Thioridazin; Thioridazine; Thioridazinum; Tioridazina

> <PRODUCTS>
Mellaril; Mellaril Tab 100mg; Mellaril Tab 10mg; Mellaril Tab 200mg; Mellaril Tab 25mg; Mellaril Tab 50mg; Novo-ridazine (thioridazine Oral Suspension) - 2 mg/ml; Novo-ridazine 100mg; Novo-ridazine 10mg; Novo-ridazine 25mg; Novo-ridazine 50mg; Novo-ridazine Tab 200mg; PMS Thioridazine Tab 50mg; PMS-thioridazine 100mg/tab USP; PMS-thioridazine 10mg/tab USP; PMS-thioridazine Solution 30mg/ml; PMS-thioridazine Solution 5mg/ml; PMS-thioridazine Tab 25mg; Thioridazine Hydrochloride; Thioridazine Oral Sus 2mg/ml; Thioridazine Tab 10mg; Thioridazine Tab 25mg; Thioridazine Tab 50mg

> <INTERNATIONAL_BRANDS>
Aldazine; Mallorol; Malloryl; Meleril; Mellaril-S; Mellerets; Mellerette; Melleretten; Melleril; Novoridazine; Orsanil; Ridazin; Ridazine; Sonapax; Thioril

> <SALTS>
Thioridazine hydrochloride

$$$$
680
  Mrv0541 02231214552D          

 30 33  0  0  0  0            999 V2000
    4.5073   -2.6666    0.0000 S   0  0  0  0  0  0  0  0  0  0  0  0
    1.6498    2.2827    0.0000 O   0  0  0  0  0  0  0  0  0  0  0  0
    5.2216    0.2205    0.0000 O   0  0  0  0  0  0  0  0  0  0  0  0
    8.8480   -0.9914    0.0000 O   0  0  0  0  0  0  0  0  0  0  0  0
    8.1384   -2.2315    0.0000 O   0  0  0  0  0  0  0  0  0  0  0  0
    3.0786    1.4578    0.0000 N   0  0  0  0  0  0  0  0  0  0  0  0
    4.5073   -1.0169    0.0000 N   0  0  0  0  0  0  0  0  0  0  0  0
    7.4192   -0.9969    0.0000 N   0  0  0  0  0  0  0  0  0  0  0  0
    3.7929    1.0454    0.0000 C   0  0  0  0  0  0  0  0  0  0  0  0
    3.0786    2.2827    0.0000 C   0  0  0  0  0  0  0  0  0  0  0  0
    2.3641    1.0454    0.0000 C   0  0  0  0  0  0  0  0  0  0  0  0
    3.7929    0.2205    0.0000 C   0  0  0  0  0  0  0  0  0  0  0  0
    2.3641    2.6951    0.0000 C   0  0  0  0  0  0  0  0  0  0  0  0
    1.6498    1.4578    0.0000 C   0  0  0  0  0  0  0  0  0  0  0  0
    4.5073   -0.1920    0.0000 C   0  0  0  0  0  0  0  0  0  0  0  0
    5.2216   -1.4293    0.0000 C   0  0  0  0  0  0  0  0  0  0  0  0
    3.7929   -1.4293    0.0000 C   0  0  0  0  0  0  0  0  0  0  0  0
    5.2216   -2.2542    0.0000 C   0  0  0  0  0  0  0  0  0  0  0  0
    3.7929   -2.2542    0.0000 C   0  0  0  0  0  0  0  0  0  0  0  0
    5.9591   -0.9883    0.0000 C   0  0  0  0  0  0  0  0  0  0  0  0
    3.0555   -0.9883    0.0000 C   0  0  0  0  0  0  0  0  0  0  0  0
    5.9591   -2.6951    0.0000 C   0  0  0  0  0  0  0  0  0  0  0  0
    6.7064   -1.4121    0.0000 C   0  0  0  0  0  0  0  0  0  0  0  0
    3.0555   -2.6951    0.0000 C   0  0  0  0  0  0  0  0  0  0  0  0
    6.7064   -2.2713    0.0000 C   0  0  0  0  0  0  0  0  0  0  0  0
    2.3081   -1.4121    0.0000 C   0  0  0  0  0  0  0  0  0  0  0  0
    2.3081   -2.2713    0.0000 C   0  0  0  0  0  0  0  0  0  0  0  0
    8.1352   -1.4066    0.0000 C   0  0  0  0  0  0  0  0  0  0  0  0
    9.5639   -1.4011    0.0000 C   0  0  0  0  0  0  0  0  0  0  0  0
   10.2767   -0.9859    0.0000 C   0  0  0  0  0  0  0  0  0  0  0  0
  1 18  1  0  0  0  0
  1 19  1  0  0  0  0
  2 13  1  0  0  0  0
  2 14  1  0  0  0  0
  3 15  2  0  0  0  0
  4 28  1  0  0  0  0
  4 29  1  0  0  0  0
  5 28  2  0  0  0  0
  6  9  1  0  0  0  0
  6 10  1  0  0  0  0
  6 11  1  0  0  0  0
  7 15  1  0  0  0  0
  7 16  1  0  0  0  0
  7 17  1  0  0  0  0
  8 23  1  0  0  0  0
  8 28  1  0  0  0  0
  9 12  1  0  0  0  0
 10 13  1  0  0  0  0
 11 14  1  0  0  0  0
 12 15  1  0  0  0  0
 16 18  2  0  0  0  0
 16 20  1  0  0  0  0
 17 19  1  0  0  0  0
 17 21  2  0  0  0  0
 18 22  1  0  0  0  0
 19 24  2  0  0  0  0
 20 23  2  0  0  0  0
 21 26  1  0  0  0  0
 22 25  2  0  0  0  0
 23 25  1  0  0  0  0
 24 27  1  0  0  0  0
 26 27  2  0  0  0  0
 29 30  1  0  0  0  0
M  END
> <DATABASE_ID>
DB00680

> <DATABASE_NAME>
drugbank

> <SMILES>
CCOC(=O)NC1=CC2=C(SC3=CC=CC=C3N2C(=O)CCN2CCOCC2)C=C1

> <INCHI_IDENTIFIER>
InChI=1S/C22H25N3O4S/c1-2-29-22(27)23-16-7-8-20-18(15-16)25(17-5-3-4-6-19(17)30-20)21(26)9-10-24-11-13-28-14-12-24/h3-8,15H,2,9-14H2,1H3,(H,23,27)

> <INCHI_KEY>
FUBVWMNBEHXPSU-UHFFFAOYSA-N

> <FORMULA>
C22H25N3O4S

> <MOLECULAR_WEIGHT>
427.517

> <EXACT_MASS>
427.156576993

> <JCHEM_ACCEPTOR_COUNT>
5

> <JCHEM_AVERAGE_POLARIZABILITY>
45.26945016074669

> <JCHEM_BIOAVAILABILITY>
1

> <JCHEM_DONOR_COUNT>
1

> <JCHEM_FORMAL_CHARGE>
0

> <JCHEM_GHOSE_FILTER>
1

> <JCHEM_IUPAC>
ethyl N-{10-[3-(morpholin-4-yl)propanoyl]-10H-phenothiazin-2-yl}carbamate

> <ALOGPS_LOGP>
3.04

> <JCHEM_LOGP>
3.0723045793333315

> <ALOGPS_LOGS>
-4.10

> <JCHEM_MDDR_LIKE_RULE>
1

> <JCHEM_NUMBER_OF_RINGS>
4

> <JCHEM_PHYSIOLOGICAL_CHARGE>
0

> <JCHEM_PKA>
18.467498121585702

> <JCHEM_PKA_STRONGEST_ACIDIC>
12.896780583485786

> <JCHEM_PKA_STRONGEST_BASIC>
6.733870128078027

> <JCHEM_POLAR_SURFACE_AREA>
71.11

> <JCHEM_REFRACTIVITY>
118.87870000000004

> <JCHEM_ROTATABLE_BOND_COUNT>
6

> <JCHEM_RULE_OF_FIVE>
1

> <ALOGPS_SOLUBILITY>
3.39e-02 g/l

> <JCHEM_TRADITIONAL_IUPAC>
moricizine

> <JCHEM_VEBER_RULE>
0

> <DRUGBANK_ID>
DB00680

> <SECONDARY_ACCESSION_NUMBERS>
APRD01124

> <DRUG_GROUPS>
approved; investigational; withdrawn

> <GENERIC_NAME>
Moricizine

> <SYNONYMS>
[10-(3-Morpholin-4-yl-propionyl)-10H-phenothiazin-2-yl]-carbamic acid ethyl ester; Ethmozin; ethyl 10-(3-morpholinopropionyl)phenothiazine-2-carbamate; ethyl 10-(β-N-morpholinylpropionyl)phenothiazine-2-carbamate; Etmozin; Moracizin; Moracizina; Moracizine; Moracizinum; Moricizine

> <PRODUCTS>
Ethmozine

> <INTERNATIONAL_BRANDS>
Etmozins

> <SALTS>
Moricizine hydrochloride

$$$$

  Mrv1572004101616072D          

 32 36  0  0  0  0            999 V2000
    0.8739    0.8456    0.0000 C   0  0  0  0  0  0  0  0  0  0  0  0
    1.5752    0.4331    0.0000 N   0  0  0  0  0  0  0  0  0  0  0  0
    0.8739    1.6706    0.0000 C   0  0  0  0  0  0  0  0  0  0  0  0
    0.1315    0.4331    0.0000 N   0  0  0  0  0  0  0  0  0  0  0  0
    1.5752   -0.3918    0.0000 C   0  0  0  0  0  0  0  0  0  0  0  0
    2.2765    0.8456    0.0000 C   0  0  0  0  0  0  0  0  0  0  0  0
    1.5339    2.0832    0.0000 C   0  0  0  0  0  0  0  0  0  0  0  0
    0.1315    2.0832    0.0000 C   0  0  0  0  0  0  0  0  0  0  0  0
   -0.5698    0.8456    0.0000 C   0  0  0  0  0  0  0  0  0  0  0  0
    2.3177   -0.8043    0.0000 C   0  0  0  0  0  0  0  0  0  0  0  0
    0.8739   -0.8043    0.0000 C   0  0  0  0  0  0  0  0  0  0  0  0
    2.2765    1.6706    0.0000 C   0  0  0  0  0  0  0  0  0  0  0  0
    1.5339    2.9082    0.0000 O   0  0  0  0  0  0  0  0  0  0  0  0
   -0.5698    1.6706    0.0000 C   0  0  0  0  0  0  0  0  0  0  0  0
   -1.2710    0.3918    0.0000 N   0  0  0  0  0  0  0  0  0  0  0  0
    2.3177   -1.6706    0.0000 C   0  0  0  0  0  0  0  0  0  0  0  0
    3.0190   -0.3918    0.0000 F   0  0  0  0  0  0  0  0  0  0  0  0
    0.8739   -1.6294    0.0000 C   0  0  0  0  0  0  0  0  0  0  0  0
    2.9778    2.0832    0.0000 C   0  0  0  0  0  0  0  0  0  0  0  0
   -1.2710    2.0832    0.0000 F   0  0  0  0  0  0  0  0  0  0  0  0
    1.5752   -2.0419    0.0000 C   0  0  0  0  0  0  0  0  0  0  0  0
    3.6791    1.6706    0.0000 O   0  0  0  0  0  0  0  0  0  0  0  0
    2.9778    2.9082    0.0000 O   0  0  0  0  0  0  0  0  0  0  0  0
    1.5752   -2.9082    0.0000 F   0  0  0  0  0  0  0  0  0  0  0  0
   -2.0409    0.6888    0.0000 C   0  0  0  0  0  0  0  0  0  0  0  0
   -2.5611    0.0485    0.0000 C   0  0  1  0  0  0  0  0  0  0  0  0
   -2.1129   -0.6441    0.0000 C   0  0  1  0  0  0  0  0  0  0  0  0
   -1.2744   -0.4319    0.0000 C   0  0  0  0  0  0  0  0  0  0  0  0
   -2.9624   -0.6393    0.0000 C   0  0  2  0  0  0  0  0  0  0  0  0
   -3.1274    0.6393    0.0000 H   0  0  0  0  0  0  0  0  0  0  0  0
   -1.8898   -1.4232    0.0000 H   0  0  0  0  0  0  0  0  0  0  0  0
   -3.6791   -1.0483    0.0000 N   0  0  0  0  0  0  0  0  0  0  0  0
  1  2  1  0  0  0  0
  1  3  2  0  0  0  0
  1  4  1  0  0  0  0
  2  5  1  0  0  0  0
  2  6  1  0  0  0  0
  3  7  1  0  0  0  0
  3  8  1  0  0  0  0
  4  9  2  0  0  0  0
  5 10  2  0  0  0  0
  5 11  1  0  0  0  0
  6 12  2  0  0  0  0
  7 13  2  0  0  0  0
  8 14  2  0  0  0  0
  9 15  1  0  0  0  0
 10 16  1  0  0  0  0
 10 17  1  0  0  0  0
 11 18  2  0  0  0  0
 12 19  1  0  0  0  0
 14 20  1  0  0  0  0
 16 21  2  0  0  0  0
 19 22  1  0  0  0  0
 19 23  2  0  0  0  0
 21 24  1  0  0  0  0
  7 12  1  0  0  0  0
  9 14  1  0  0  0  0
 18 21  1  0  0  0  0
 15 25  1  0  0  0  0
 25 26  1  0  0  0  0
 26 27  1  0  0  0  0
 27 28  1  0  0  0  0
 15 28  1  0  0  0  0
 26 29  1  0  0  0  0
 29 27  1  0  0  0  0
 26 30  1  6  0  0  0
 27 31  1  6  0  0  0
 29 32  1  6  0  0  0
M  END
> <DATABASE_ID>
DB00685

> <DATABASE_NAME>
drugbank

> <SMILES>
[H][C@@]12CN(C[C@]1([H])[C@H]2N)C1=NC2=C(C=C1F)C(=O)C(=CN2C1=C(F)C=C(F)C=C1)C(O)=O

> <INCHI_IDENTIFIER>
InChI=1S/C20H15F3N4O3/c21-8-1-2-15(13(22)3-8)27-7-12(20(29)30)17(28)9-4-14(23)19(25-18(9)27)26-5-10-11(6-26)16(10)24/h1-4,7,10-11,16H,5-6,24H2,(H,29,30)/t10-,11+,16+

> <INCHI_KEY>
WVPSKSLAZQPAKQ-CDMJZVDBSA-N

> <FORMULA>
C20H15F3N4O3

> <MOLECULAR_WEIGHT>
416.36

> <EXACT_MASS>
416.109624848

> <JCHEM_ACCEPTOR_COUNT>
7

> <JCHEM_ATOM_COUNT>
45

> <JCHEM_AVERAGE_POLARIZABILITY>
38.11757279617303

> <JCHEM_BIOAVAILABILITY>
1

> <JCHEM_DONOR_COUNT>
2

> <JCHEM_FORMAL_CHARGE>
0

> <JCHEM_GHOSE_FILTER>
1

> <JCHEM_IUPAC>
7-[(1R,5S,6S)-6-amino-3-azabicyclo[3.1.0]hexan-3-yl]-1-(2,4-difluorophenyl)-6-fluoro-4-oxo-1,4-dihydro-1,8-naphthyridine-3-carboxylic acid

> <ALOGPS_LOGP>
0.86

> <JCHEM_LOGP>
0.13645476717269145

> <ALOGPS_LOGS>
-3.77

> <JCHEM_MDDR_LIKE_RULE>
0

> <JCHEM_NUMBER_OF_RINGS>
5

> <JCHEM_PHYSIOLOGICAL_CHARGE>
0

> <JCHEM_PKA_STRONGEST_ACIDIC>
5.4129478878424715

> <JCHEM_PKA_STRONGEST_BASIC>
9.440102776764602

> <JCHEM_POLAR_SURFACE_AREA>
99.76

> <JCHEM_REFRACTIVITY>
101.04039999999999

> <JCHEM_ROTATABLE_BOND_COUNT>
3

> <JCHEM_RULE_OF_FIVE>
1

> <ALOGPS_SOLUBILITY>
7.04e-02 g/l

> <JCHEM_TRADITIONAL_IUPAC>
7-[(1R,5S,6S)-6-amino-3-azabicyclo[3.1.0]hexan-3-yl]-1-(2,4-difluorophenyl)-6-fluoro-4-oxo-1,8-naphthyridine-3-carboxylic acid

> <JCHEM_VEBER_RULE>
0

> <DRUGBANK_ID>
DB00685

> <SECONDARY_ACCESSION_NUMBERS>
APRD01281

> <DRUG_GROUPS>
approved; investigational; withdrawn

> <GENERIC_NAME>
Trovafloxacin

> <SYNONYMS>
Trovafloxacin; trovafloxacino

> <PRODUCTS>
Trovan; Trovan Tablets 100mg; Trovan Tablets 200mg

> <INTERNATIONAL_BRANDS>
Trovan

> <SALTS>
Trovafloxacin hydrochloride; Trovafloxacin mesylate

$$$$
739
  Mrv0541 02231214582D          

 28 31  0  0  1  0            999 V2000
    7.4805    0.5950    0.0000 S   0  0  0  0  0  0  0  0  0  0  0  0
    5.2819   -1.0729    0.0000 O   0  0  0  0  0  0  0  0  0  0  0  0
    4.0907    0.0663    0.0000 O   0  0  0  0  0  0  0  0  0  0  0  0
    7.1834   -2.1376    0.0000 O   0  0  0  0  0  0  0  0  0  0  0  0
    8.5424   -1.6960    0.0000 O   0  0  0  0  0  0  0  0  0  0  0  0
    6.6959   -0.4849    0.0000 N   0  0  0  0  0  0  0  0  0  0  0  0
    5.2819    0.9280    0.0000 N   0  0  0  0  0  0  0  0  0  0  0  0
    4.6784    2.1187    0.0000 N   0  0  0  0  0  0  0  0  0  0  0  0
    6.6959    0.3401    0.0000 C   0  0  1  0  0  0  0  0  0  0  0  0
    5.8640    0.3435    0.0000 C   0  0  1  0  0  0  0  0  0  0  0  0
    7.4805   -0.7399    0.0000 C   0  0  2  0  0  0  0  0  0  0  0  0
    7.9654   -0.0724    0.0000 C   0  0  0  0  0  0  0  0  0  0  0  0
    5.8640   -0.4883    0.0000 C   0  0  0  0  0  0  0  0  0  0  0  0
    5.4126    1.7427    0.0000 C   0  0  0  0  0  0  0  0  0  0  0  0
    4.4668    0.8007    0.0000 C   0  0  0  0  0  0  0  0  0  0  0  0
    4.0938    1.5365    0.0000 C   0  0  1  0  0  0  0  0  0  0  0  0
    8.6329   -0.5574    0.0000 C   0  0  0  0  0  0  0  0  0  0  0  0
    8.6329    0.4125    0.0000 C   0  0  0  0  0  0  0  0  0  0  0  0
    7.7355   -1.5245    0.0000 C   0  0  0  0  0  0  0  0  0  0  0  0
    6.2272    1.6119    0.0000 C   0  0  0  0  0  0  0  0  0  0  0  0
    5.7886    2.4769    0.0000 C   0  0  0  0  0  0  0  0  0  0  0  0
    3.2791    1.6673    0.0000 C   0  0  0  0  0  0  0  0  0  0  0  0
    2.7586    1.0272    0.0000 C   0  0  0  0  0  0  0  0  0  0  0  0
    2.9851    2.4381    0.0000 C   0  0  0  0  0  0  0  0  0  0  0  0
    1.9440    1.1579    0.0000 C   0  0  0  0  0  0  0  0  0  0  0  0
    2.1705    2.5688    0.0000 C   0  0  0  0  0  0  0  0  0  0  0  0
    1.6500    1.9287    0.0000 C   0  0  0  0  0  0  0  0  0  0  0  0
    6.5940    0.9922    0.0000 H   0  0  0  0  0  0  0  0  0  0  0  0
  1  9  1  0  0  0  0
  1 12  1  0  0  0  0
  2 13  2  0  0  0  0
  3 15  2  0  0  0  0
  4 19  1  0  0  0  0
  5 19  2  0  0  0  0
  6  9  1  0  0  0  0
  6 11  1  0  0  0  0
  6 13  1  0  0  0  0
 10  7  1  1  0  0  0
  7 14  1  0  0  0  0
  7 15  1  0  0  0  0
  8 14  1  0  0  0  0
  8 16  1  0  0  0  0
  9 10  1  0  0  0  0
  9 28  1  6  0  0  0
 10 13  1  0  0  0  0
 11 12  1  0  0  0  0
 11 19  1  6  0  0  0
 12 17  1  0  0  0  0
 12 18  1  0  0  0  0
 14 20  1  0  0  0  0
 14 21  1  0  0  0  0
 15 16  1  0  0  0  0
 16 22  1  1  0  0  0
 22 23  2  0  0  0  0
 22 24  1  0  0  0  0
 23 25  1  0  0  0  0
 24 26  2  0  0  0  0
 25 27  2  0  0  0  0
 26 27  1  0  0  0  0
M  END
> <DATABASE_ID>
DB00739

> <DATABASE_NAME>
drugbank

> <SMILES>
[H][C@]12SC(C)(C)[C@@H](N1C(=O)[C@H]2N1C(=O)[C@H](NC1(C)C)C1=CC=CC=C1)C(O)=O

> <INCHI_IDENTIFIER>
InChI=1S/C19H23N3O4S/c1-18(2)13(17(25)26)21-15(24)12(16(21)27-18)22-14(23)11(20-19(22,3)4)10-8-6-5-7-9-10/h5-9,11-13,16,20H,1-4H3,(H,25,26)/t11-,12-,13+,16-/m1/s1

> <INCHI_KEY>
DXVUYOAEDJXBPY-NFFDBFGFSA-N

> <FORMULA>
C19H23N3O4S

> <MOLECULAR_WEIGHT>
389.469

> <EXACT_MASS>
389.140926929

> <JCHEM_ACCEPTOR_COUNT>
5

> <JCHEM_AVERAGE_POLARIZABILITY>
39.58154278946702

> <JCHEM_BIOAVAILABILITY>
1

> <JCHEM_DONOR_COUNT>
2

> <JCHEM_FORMAL_CHARGE>
0

> <JCHEM_GHOSE_FILTER>
0

> <JCHEM_IUPAC>
(2S,5R,6R)-6-[(4R)-2,2-dimethyl-5-oxo-4-phenylimidazolidin-1-yl]-3,3-dimethyl-7-oxo-4-thia-1-azabicyclo[3.2.0]heptane-2-carboxylic acid

> <ALOGPS_LOGP>
0.85

> <JCHEM_LOGP>
-0.015010228405816369

> <ALOGPS_LOGS>
-2.88

> <JCHEM_MDDR_LIKE_RULE>
0

> <JCHEM_NUMBER_OF_RINGS>
4

> <JCHEM_PHYSIOLOGICAL_CHARGE>
-1

> <JCHEM_PKA>
14.993524451963172

> <JCHEM_PKA_STRONGEST_ACIDIC>
3.626005434143019

> <JCHEM_PKA_STRONGEST_BASIC>
5.474500567056694

> <JCHEM_POLAR_SURFACE_AREA>
89.94999999999999

> <JCHEM_REFRACTIVITY>
99.89940000000003

> <JCHEM_ROTATABLE_BOND_COUNT>
3

> <JCHEM_RULE_OF_FIVE>
1

> <ALOGPS_SOLUBILITY>
5.12e-01 g/l

> <JCHEM_TRADITIONAL_IUPAC>
hetacillin

> <JCHEM_VEBER_RULE>
0

> <DRUGBANK_ID>
DB00739

> <SECONDARY_ACCESSION_NUMBERS>
APRD01012

> <DRUG_GROUPS>
approved; vet_approved; withdrawn

> <GENERIC_NAME>
Hetacillin

> <SYNONYMS>
(2S,5R,6R)-6-[(4R)-2,2-dimethyl-5-oxo-4-phenylimidazolidin-1-yl]-3,3-dimethyl-7-oxo-4-thia-1-azabicyclo[3.2.0]heptane-2-carboxylic acid; 6β-[(4R)-2,2-dimethyl-5-oxo-4-phenylimidazolidin-1-yl]penicillanic acid; Hetacilina; Hetacillin; Hétacilline; Hetacillinum

> <INTERNATIONAL_BRANDS>
Natacillin; Versapen

> <SALTS>
Hetacillin potassium

$$$$
744
  Mrv0541 02231214582D          

 16 17  0  0  1  0            999 V2000
    3.8597    1.1874    0.0000 S   0  0  0  0  0  0  0  0  0  0  0  0
    5.1662   -0.9055    0.0000 O   0  0  0  0  0  0  0  0  0  0  0  0
    6.8162    0.5235    0.0000 O   0  0  0  0  0  0  0  0  0  0  0  0
    5.5787   -0.1910    0.0000 N   0  0  0  0  0  0  0  0  0  0  0  0
    6.8162   -0.9055    0.0000 N   0  0  0  0  0  0  0  0  0  0  0  0
    5.1662    0.5235    0.0000 C   0  0  0  0  0  0  0  0  0  0  0  0
    4.3412    0.5235    0.0000 C   0  0  0  0  0  0  0  0  0  0  0  0
    3.0791    0.1110    0.0000 C   0  0  0  0  0  0  0  0  0  0  0  0
    3.8597   -0.1404    0.0000 C   0  0  0  0  0  0  0  0  0  0  0  0
    3.0791    0.9360    0.0000 C   0  0  0  0  0  0  0  0  0  0  0  0
    5.5787    1.2379    0.0000 C   0  0  0  0  0  0  0  0  0  0  0  0
    2.3645   -0.3015    0.0000 C   0  0  0  0  0  0  0  0  0  0  0  0
    2.3645    1.3485    0.0000 C   0  0  0  0  0  0  0  0  0  0  0  0
    1.6500    0.1110    0.0000 C   0  0  0  0  0  0  0  0  0  0  0  0
    1.6500    0.9360    0.0000 C   0  0  0  0  0  0  0  0  0  0  0  0
    6.4037   -0.1910    0.0000 C   0  0  0  0  0  0  0  0  0  0  0  0
  1  7  1  0  0  0  0
  1 10  1  0  0  0  0
  2  4  1  0  0  0  0
  3 16  2  0  0  0  0
  4  6  1  0  0  0  0
  4 16  1  0  0  0  0
  5 16  1  0  0  0  0
  6  7  1  0  0  0  0
  6 11  1  0  0  0  0
  7  9  2  0  0  0  0
  8  9  1  0  0  0  0
  8 10  1  0  0  0  0
  8 12  2  0  0  0  0
 10 13  2  0  0  0  0
 12 14  1  0  0  0  0
 13 15  1  0  0  0  0
 14 15  2  0  0  0  0
M  END
> <DATABASE_ID>
DB00744

> <DATABASE_NAME>
drugbank

> <SMILES>
CC(N(O)C(N)=O)C1=CC2=CC=CC=C2S1

> <INCHI_IDENTIFIER>
InChI=1S/C11H12N2O2S/c1-7(13(15)11(12)14)10-6-8-4-2-3-5-9(8)16-10/h2-7,15H,1H3,(H2,12,14)

> <INCHI_KEY>
MWLSOWXNZPKENC-UHFFFAOYSA-N

> <FORMULA>
C11H12N2O2S

> <MOLECULAR_WEIGHT>
236.29

> <EXACT_MASS>
236.061948328

> <JCHEM_ACCEPTOR_COUNT>
2

> <JCHEM_AVERAGE_POLARIZABILITY>
24.13772048218238

> <JCHEM_BIOAVAILABILITY>
1

> <JCHEM_DONOR_COUNT>
2

> <JCHEM_FORMAL_CHARGE>
0

> <JCHEM_GHOSE_FILTER>
1

> <JCHEM_IUPAC>
1-[1-(1-benzothiophen-2-yl)ethyl]-1-hydroxyurea

> <ALOGPS_LOGP>
2.01

> <JCHEM_LOGP>
2.006172834999999

> <ALOGPS_LOGS>
-3.64

> <JCHEM_MDDR_LIKE_RULE>
0

> <JCHEM_NUMBER_OF_RINGS>
2

> <JCHEM_PHYSIOLOGICAL_CHARGE>
0

> <JCHEM_PKA_STRONGEST_ACIDIC>
8.837783092710643

> <JCHEM_PKA_STRONGEST_BASIC>
-5.494153581458328

> <JCHEM_POLAR_SURFACE_AREA>
66.56

> <JCHEM_REFRACTIVITY>
61.95950000000001

> <JCHEM_ROTATABLE_BOND_COUNT>
2

> <JCHEM_RULE_OF_FIVE>
1

> <ALOGPS_SOLUBILITY>
5.39e-02 g/l

> <JCHEM_TRADITIONAL_IUPAC>
zileuton

> <JCHEM_VEBER_RULE>
0

> <DRUGBANK_ID>
DB00744

> <SECONDARY_ACCESSION_NUMBERS>
APRD00265

> <DRUG_GROUPS>
approved; investigational; withdrawn

> <GENERIC_NAME>
Zileuton

> <SYNONYMS>
(±)-1-(1-Benzo[b]thien-2-ylethyl)-1-hydroxyurea; Leutrol; N-(1-Benzo(b)thien-2-ylethyl)-N-hydroxyurea; N-[1-(benzo[b]thiophen-2-yl)ethyl]-N-hydroxyurea; Zileuton; Zileutón; Zileutonum

> <PRODUCTS>
Zileuton; Zyflo; Zyflo CR

$$$$
756
  Mrv0541 02231214592D          

 21 22  0  0  0  0            999 V2000
    5.1469    0.1168    0.0000 Cl  0  0  0  0  0  0  0  0  0  0  0  0
    4.9509   -0.9947    0.0000 Cl  0  0  0  0  0  0  0  0  0  0  0  0
    3.0257    2.6447    0.0000 Cl  0  0  0  0  0  0  0  0  0  0  0  0
    2.0930   -2.6447    0.0000 Cl  0  0  0  0  0  0  0  0  0  0  0  0
    5.7112    1.6673    0.0000 Cl  0  0  0  0  0  0  0  0  0  0  0  0
    4.9509   -2.6447    0.0000 Cl  0  0  0  0  0  0  0  0  0  0  0  0
    2.4613    1.0943    0.0000 O   0  0  0  0  0  0  0  0  0  0  0  0
    2.0930   -0.9947    0.0000 O   0  0  0  0  0  0  0  0  0  0  0  0
    3.5220   -0.1697    0.0000 C   0  0  0  0  0  0  0  0  0  0  0  0
    3.8041    0.6056    0.0000 C   0  0  0  0  0  0  0  0  0  0  0  0
    3.5220   -0.9947    0.0000 C   0  0  0  0  0  0  0  0  0  0  0  0
    3.2738    1.2375    0.0000 C   0  0  0  0  0  0  0  0  0  0  0  0
    2.8075   -1.4072    0.0000 C   0  0  0  0  0  0  0  0  0  0  0  0
    4.6166    0.7488    0.0000 C   0  0  0  0  0  0  0  0  0  0  0  0
    4.2364   -1.4072    0.0000 C   0  0  0  0  0  0  0  0  0  0  0  0
    3.5560    2.0128    0.0000 C   0  0  0  0  0  0  0  0  0  0  0  0
    2.8075   -2.2322    0.0000 C   0  0  0  0  0  0  0  0  0  0  0  0
    4.8988    1.5240    0.0000 C   0  0  0  0  0  0  0  0  0  0  0  0
    4.2364   -2.2322    0.0000 C   0  0  0  0  0  0  0  0  0  0  0  0
    4.3684    2.1560    0.0000 C   0  0  0  0  0  0  0  0  0  0  0  0
    3.5220   -2.6447    0.0000 C   0  0  0  0  0  0  0  0  0  0  0  0
  1 14  1  0  0  0  0
  2 15  1  0  0  0  0
  3 16  1  0  0  0  0
  4 17  1  0  0  0  0
  5 18  1  0  0  0  0
  6 19  1  0  0  0  0
  7 12  1  0  0  0  0
  8 13  1  0  0  0  0
  9 10  1  0  0  0  0
  9 11  1  0  0  0  0
 10 12  2  0  0  0  0
 10 14  1  0  0  0  0
 11 13  2  0  0  0  0
 11 15  1  0  0  0  0
 12 16  1  0  0  0  0
 13 17  1  0  0  0  0
 14 18  2  0  0  0  0
 15 19  2  0  0  0  0
 16 20  2  0  0  0  0
 17 21  2  0  0  0  0
 18 20  1  0  0  0  0
 19 21  1  0  0  0  0
M  END
> <DATABASE_ID>
DB00756

> <DATABASE_NAME>
drugbank

> <SMILES>
OC1=C(CC2=C(O)C(Cl)=CC(Cl)=C2Cl)C(Cl)=C(Cl)C=C1Cl

> <INCHI_IDENTIFIER>
InChI=1S/C13H6Cl6O2/c14-6-2-8(16)12(20)4(10(6)18)1-5-11(19)7(15)3-9(17)13(5)21/h2-3,20-21H,1H2

> <INCHI_KEY>
ACGUYXCXAPNIKK-UHFFFAOYSA-N

> <FORMULA>
C13H6Cl6O2

> <MOLECULAR_WEIGHT>
406.904

> <EXACT_MASS>
403.849895678

> <JCHEM_ACCEPTOR_COUNT>
2

> <JCHEM_AVERAGE_POLARIZABILITY>
34.071855286150594

> <JCHEM_BIOAVAILABILITY>
1

> <JCHEM_DONOR_COUNT>
2

> <JCHEM_FORMAL_CHARGE>
0

> <JCHEM_GHOSE_FILTER>
0

> <JCHEM_IUPAC>
3,4,6-trichloro-2-[(2,3,5-trichloro-6-hydroxyphenyl)methyl]phenol

> <ALOGPS_LOGP>
6.77

> <JCHEM_LOGP>
7.082177257666666

> <ALOGPS_LOGS>
-5.97

> <JCHEM_MDDR_LIKE_RULE>
0

> <JCHEM_NUMBER_OF_RINGS>
2

> <JCHEM_PHYSIOLOGICAL_CHARGE>
-1

> <JCHEM_PKA>
8.794720213161474

> <JCHEM_PKA_STRONGEST_ACIDIC>
5.153372662291707

> <JCHEM_PKA_STRONGEST_BASIC>
-7.377815156118747

> <JCHEM_POLAR_SURFACE_AREA>
40.46

> <JCHEM_REFRACTIVITY>
88.58579999999999

> <JCHEM_ROTATABLE_BOND_COUNT>
2

> <JCHEM_RULE_OF_FIVE>
0

> <ALOGPS_SOLUBILITY>
4.33e-04 g/l

> <JCHEM_TRADITIONAL_IUPAC>
pre-op

> <JCHEM_VEBER_RULE>
0

> <DRUGBANK_ID>
DB00756

> <SECONDARY_ACCESSION_NUMBERS>
APRD00722

> <DRUG_GROUPS>
approved; withdrawn

> <GENERIC_NAME>
Hexachlorophene

> <SYNONYMS>
2,2'-dihydroxy-3,3',5,5',6,6'-hexachlorodiphenylmethane; 2,2'-dihydroxy-3,5,6,3',5',6'-hexachlorodiphenylmethane; 2,2'-methanediylbis(3,4,6-trichlorophenol); 2,2'-methylenebis(3,4,6-trichlorophenol); 2,2',3,3',5,5'-hexachloro-6,6'-dihydroxydiphenylmethane; bis(2-hydroxy-3,5,6-trichlorophenyl)methane; bis(3,5,6-trichloro-2-hydroxyphenyl)methane; hexachlorophène; Hexachlorophene; Hexachlorophenum; Hexaclorofeno

> <PRODUCTS>
Phisohex; Sapoderm

> <INTERNATIONAL_BRANDS>
Acigena; Aknefug; Almederm; Armohex; Dermisan; Dial; Distodin; E-Z scrub; Exofene; Gamophen; Gamophene; Germa-medica; Hexa-Germ; Hexabalm; Hexafen; Hexascrub; Hexide; Nabac; Phiso-scrub; Phisodan; Pre-Op; Pre-Op II; Septi-soft; Septisol; Septofen; Solu-Heks; Soy-Dome; Staphene O; Ster-Zac; Steral; Steraskin; Surgi-Cen; Surgi-Cin; Surofene; Tersaseptic; Turgex

$$$$

  Mrv0541 02231214592D          

  2  0  0  0  0  0            999 V2000
    0.0000    0.0000    0.0000 K   0  3  0  0  0  0  0  0  0  0  0  0
    1.0000    0.0000    0.0000 Cl  0  5  0  0  0  0  0  0  0  0  0  0
M  CHG  2   1   1   2  -1
M  END
> <DATABASE_ID>
DB00761

> <DATABASE_NAME>
drugbank

> <SMILES>
[Cl-].[K+]

> <INCHI_IDENTIFIER>
InChI=1S/ClH.K/h1H;/q;+1/p-1

> <INCHI_KEY>
WCUXLLCKKVVCTQ-UHFFFAOYSA-M

> <FORMULA>
ClK

> <MOLECULAR_WEIGHT>
74.551

> <EXACT_MASS>
73.932559568

> <JCHEM_ACCEPTOR_COUNT>
0

> <JCHEM_AVERAGE_POLARIZABILITY>
1.7784

> <JCHEM_BIOAVAILABILITY>
1

> <JCHEM_DONOR_COUNT>
0

> <JCHEM_FORMAL_CHARGE>
0

> <JCHEM_GHOSE_FILTER>
0

> <JCHEM_IUPAC>
potassium chloride

> <JCHEM_LOGP>
0.2

> <JCHEM_MDDR_LIKE_RULE>
0

> <JCHEM_NUMBER_OF_RINGS>
0

> <JCHEM_PHYSIOLOGICAL_CHARGE>
-1

> <JCHEM_PKA_STRONGEST_ACIDIC>
-7.000000000000001

> <JCHEM_POLAR_SURFACE_AREA>
0

> <JCHEM_REFRACTIVITY>
0

> <JCHEM_ROTATABLE_BOND_COUNT>
0

> <JCHEM_RULE_OF_FIVE>
1

> <JCHEM_TRADITIONAL_IUPAC>
potassium chloride

> <JCHEM_VEBER_RULE>
1

> <DRUGBANK_ID>
DB00761

> <SECONDARY_ACCESSION_NUMBERS>
APRD01322

> <DRUG_GROUPS>
approved; withdrawn

> <GENERIC_NAME>
Potassium chloride

> <SYNONYMS>
Chlorid draselny; Chloride of potash; Kaliumchlorid; KCl; Monopotassium chloride; Muriate of potash; Sylvite

> <PRODUCTS>
(20 Mmol/l) Potassium Chloride In 3.3% Dextrose and 0.3% Sodium Chloride Injection USP; (20 Mmol/l) Potassium Chloride In 5% Dextrose Injection USP; (20 Mmol/l) Potassium Chloride In 5% Dextrose and 0.9% Sodium Chloride Injection USP; (20mmol/l) Potassium Chloride In 0.9% Sodium Chloride Injection USP; (20mmol/l) Potassium Chloride In 5% Dextrose and 0.2% Sodium Chloride Injection USP; (20mmol/l) Potassium Chloride In 5% Dextrose and 0.45% Sodium Chloride Injection USP; (40 Mmol/l) Potassium Chloride In 0.9% Sodium Chloride Injection USP; (40 Mmol/l) Potassium Chloride In 5% Dextrose Injection USP; (40 Mmols/l) Potassium Chloride In Lactated Ringer's Injection USP; (40mmol/l) Potassium Chloride In 3.3% Dextrose and 0.3% Sodium Chloride Injection USP; (40mmol/l)potassium Chloride In 5% Dextrose and 0.45% Sodium Chloride Injection USP; 0.15% Potassium Chloride In 3.3% Dextrose and 0.30% Sodium Chloride Injection; 0.15% Potassium Chloride In 5% Dextrose Injection USP; 0.15% Potassium Chloride In 5% Dextrose and 0.20% Sodium Chloride Injection USP; 0.15% Potassium Chloride In 5% Dextrose and 0.33% Sodium Chloride Injection USP; 0.15% Potassium Chloride In 5% Dextrose and 0.45% Sodium Chloride Injection; 0.15% Potassium Chloride In 5% Dextrose and 0.9% Sodium Chloride Injection; 0.30% Potassium Chloride In 5% Dextrose; 0.30% Potassium Chloride In 5% Dextrose and 0.45% Sodium Chloride Injection; 5% Dextrose In Lactated Ringer's Injection; Acetate Concentrate R07376; Acid Concentrate (r04938); Acid Concentrate (r04968); Acid Concentrate (r04969); Acid Concentrate (r04974); Acid Concentrate (r04975); Acid Concentrate (r04976); Acid Concentrate (r04981); Acid Concentrate (r04984); Acid Concentrate (ro4147); Acid Concentrate (ro4148); Acid Concentrate (ro9503); Acid Concentrate (rz262c); Acid Concentrate (rz271c); Acid Concentrate (rz272c); Acid Concentrate (rz274c); Acid Concentrate (rz275c); Acid Concentrate 2101; Acid Concentrate 2102; Acid Concentrate 2105; Acid Concentrate 2106; Acid Concentrate 2109; Acid Concentrate 2112; Acid Concentrate 2113; Acid Concentrate 2117; Acid Concentrate 2120; Acid Concentrate 2122; Acid Concentrate 2123; Acid Concentrate 2125; Acid Concentrate 2126; Acid Concentrate 2129; Acid Concentrate 2131; Acid Concentrate 2132; Acid Concentrate 2135; Acid Concentrate 2139; Acid Concentrate 2147; Acid Concentrate 2148; Acid Concentrate 2151; Acid Concentrate 2152; Acid Concentrate 2155; Acid Concentrate 2156; Acid Concentrate 2161; Acid Concentrate 2162; Acid Concentrate 2163; Acid Concentrate 2166; Acid Concentrate 2168; Acid Concentrate 2171; Acid Concentrate 2175; Acid Concentrate 2182; Acid Concentrate 2185; Acid Concentrate 2189; Acid Concentrate 2190; Acid Concentrate 2196; Acid Concentrate 2198; Acid Concentrate 3186; Acid Concentrate 3187; Acid Concentrate A1221; Acid Concentrate A1222; Acid Concentrate A1223; Acid Concentrate A1224; Acid Concentrate A1225; Acid Concentrate A1226; Acid Concentrate A1227; Acid Concentrate A1228; Acid Concentrate A1229; Acid Concentrate A1231; Acid Concentrate A1241; Acid Concentrate A1242; Acid Concentrate A1243; Acid Concentrate A1245; Acid Concentrate A1246; Acid Concentrate A1251; Acid Concentrate A1252; Acid Concentrate A1253; Acid Concentrate A1255; Acid Concentrate A1261; Acid Concentrate A1262; Acid Concentrate A1263; Acid Concentrate A1265; Acid Concentrate A1266; Acid Concentrate A1267; Acid Concentrate A1268; Acid Concentrate A1269; Acid Concentrate A1274; Acid Concentrate A1275; Acid Concentrate A1276; Acid Concentrate A1277; Acid Concentrate A1278; Acid Concentrate A1279; Acid Concentrate A1280; Acid Concentrate A1294; Acid Concentrate A1295; Acid Concentrate A1296; Acid Concentrate A1297; Acid Concentrate A1298; Acid Concentrate Bp Ro4151; Acid Concentrate Bp Ro9505; Acid Concentrate Bp Ro9506; Acid Concentrate Bp Ro9507; Acid Concentrate Bp Rz267c; Acid Concentrate Bp Rz278c; Acid Concentrate Bp Rz279c; Acid Concentrate D 12219 Liq; Acid Concentrate D-12287; Acid Concentrate D-18003; Acid Concentrate D-18006; Acid Concentrate D12028; Acid Concentrate D12054; Acid Concentrate D12067; Acid Concentrate D12092; Acid Concentrate D12093; Acid Concentrate D12094; Acid Concentrate D12095; Acid Concentrate D12112; Acid Concentrate D12117; Acid Concentrate D12119; Acid Concentrate D12132; Acid Concentrate D12135; Acid Concentrate D12143; Acid Concentrate D12150; Acid Concentrate D12167; Acid Concentrate D12184; Acid Concentrate D12185; Acid Concentrate D12188; Acid Concentrate D12196; Acid Concentrate D12197; Acid Concentrate D12200; Acid Concentrate D12201; Acid Concentrate D12204; Acid Concentrate D12205; Acid Concentrate D12207; Acid Concentrate D12209; Acid Concentrate D12220; Acid Concentrate D12221; Acid Concentrate D12236; Acid Concentrate D12247; Acid Concentrate D12248; Acid Concentrate D12250; Acid Concentrate D12252; Acid Concentrate D12255; Acid Concentrate D12259; Acid Concentrate D12261; Acid Concentrate D12262; Acid Concentrate D12264; Acid Concentrate D12265; Acid Concentrate D12267; Acid Concentrate D12268; Acid Concentrate D12269; Acid Concentrate D12272; Acid Concentrate D12275; Acid Concentrate D12282; Acid Concentrate D12284; Acid Concentrate D12285; Acid Concentrate D12286; Acid Concentrate D12290; Acid Concentrate D12291; Acid Concentrate D12292; Acid Concentrate D12293; Acid Concentrate D12294; Acid Concentrate D12299; Acid Concentrate D12300; Acid Concentrate D12301; Acid Concentrate D12302; Acid Concentrate D12303; Acid Concentrate D12305; Acid Concentrate D12308; Acid Concentrate D12309; Acid Concentrate D12310; Acid Concentrate D12311; Acid Concentrate D12315; Acid Concentrate D12316; Acid Concentrate D12318; Acid Concentrate D13001; Acid Concentrate D18001; Acid Concentrate D18009; Acid Concentrate Ro4137; Acid Concentrate Ro4138; Acid Concentrate Ro4144; Acid Concentrate Ro4145; Acid Concentrate Ro4947; Acid Concentrate Ro4979; Acid Concentrate Ro4983; Acid Concentrate Ro9500; Acid Concentrate Ro9501; Acid Concentrate Ro9502; Acid Concentrate Rx252c; Acid Concentrate Rx253c; Acid Concentrate Rz110c; Acid Concentrate Rz111c; Acid Concentrate Rz119c; Acid Concentrate Rz127c; Acid Concentrate Rz144c; Acid Concentrate Rz153c; Acid Concentrate Rz164c; Acid Concentrate Rz167c; Acid Concentrate Rz171c; Acid Concentrate Rz183c; Acid Concentrate Rz185c; Acid Concentrate Rz194c; Acid Concentrate Rz195c; Acid Concentrate Rz196c; Acid Concentrate Rz202c; Acid Concentrate Rz203c; Acid Concentrate Rz207c; Acid Concentrate Rz208c; Acid Concentrate Rz209c; Acid Concentrate Rz210c; Acid Concentrate Rz211c; Acid Concentrate Rz212c; Acid Concentrate Rz213c; Acid Concentrate Rz247c; Acid Concentrate Rz248c; Acid Concentrate Rz249c; Acid Concentrate Rz254c; Acid Concentrate Rz264c; Acid Concentrate Rz265c; Acid Concentrate(36.83x) R04900; Acid Concentrate(36.83x) R04906; Acid Concentrate-r04948 Liq; Acid Hemodialysis Conc Sb 1003; Adrenogist Tab; Aminosyn; Aminosyn II 10% With Electrolytes; Aminosyn II 7% M In 10% Dextrose(dual Chamber); Aminosyn II 8.5% M In 20% Dextrose (dual Chamber); Aminosyn II and Dextrose; Aminosyn II in Dextrose; Aminosyn II with Electrolytes; Aminosyn II with Electrolytes in Dextrose with Calcium; Amo Endosol Extra; Amo Endosol Solution; Anaplex Tab; Artisial; Balanced Salt; Balanced Salt Solution; Bi-peglyte; Bicarb Hemodial Conc 36.83; Bicarbolyte Bicar Hemodialsis Conc; Bicarbolyte Bicar Hemodialysis Conc; Bss; Bss Plus; Bss Sterile Irrigating Solution; Cardioplegic; Children's Chew Multi & Min Tab; Chlorure de potassium Proamp; Citrasate C10125; Citrasate C1125; Citrasate C1150; Citrasate C2125; Citrasate C2150; Citrasate C3125; Citrasate C3150; Citrasate C4125; Clenz-Lyte; Colyte; Colyte with flavor packs; Concentrated Haemodialysis Solution Bp-rz266c; Concentrated Haemodialysis Solution Bp-rz270c; Cytosol Ophthalmics - Balanced Salt Solution; D-12043 Sol Conc Electrolyt Pour Dialy; D12006; D12046 Conc Electrolyte Renal Dialysis; D12230 Liq; Dextrose 2.5% In Half Strength Lactated Ringer's Injection, USP; Dextrose 5% and Electrolyte No75 Inj; Dextrose 50% Inj W Electrolytes PF Abbovac; Dextrose and Electrolyte No. 48; Dextrose and Electrolyte No. 75; Dextrose in Lactated Ringers; Dextrose in Ringers; Dialysis Solution 35 K2; Dialysis Solution 35 K4; Dialyte; Effervescent Potassium Chloride; Electropeg Solution; Elliott's Solution A; Elliotts B; Epiklor; Epiklor/25; Eye Stream; FreAmine III; GaviLyte - C TM; GaviLyte - N; GaviLyte-H and Bisacodyl; Gavilyte G Tm; Glycerolyte 57 Solution; Glysol-500; GoLYTELY; Golytely Gi Lavage Solution; H-706; H-710; H.E.L.P.bicel; HUMCO Potassium Chloride 10 Percent; Haemosol H-200; Haemosol H-201; Haemosol H-206; Haemosol H-208; Haemosol H-223; Haemosol H-224; Haemosol H-225; Haemosol H-226; Haemosol H-227; Haemosol H-229; Haemosol H-230; Haemosol H-232; Haemosol H-250; Haemosol H-251; Haemosol H-252; Haemosol H-253; Haemosol H-254; Haemosol H-260; Haemosol H-320; Haemosol H-330; Haemosol H-331; Haemosol H-332; Haemosol H-401; Haemosol H-402; Haemosol H-404; Haemosol H-407; Haemosol H-408; Haemosol H-410; Haemosol H-602; Haemosol H-608; Haemosol H-615; Haemosol H-616; Haemosol H-617; Haemosol H-623; Haemosol H-624; Haemosol H-625; Haemosol H-630; Haemosol H-631; Haemosol H-661; Haemosol H-690; HalfLytely and Bisacodyl; HalfLytely and Bisacodyl Bowel Prep with Flavor Packs; Hemasate Ultra Hs1125; Hemasate Ultra Hs1150; Hemasate Ultra Hs2125; Hemasate Ultra Hs2150; Hemasate Ultra Hs3125; Hemasate Ultra Hs3150; Hemasate Ultra Hs4125; Hemosate Ultra Hs1125; Hemosate Ultra Hs1150; Hemosate Ultra Hs2125; Hemosate Ultra Hs2150; Hemosate Ultra Hs3125; Hemosate Ultra Hs3150; Hemosate Ultra Hs4125; Hemosol Lg2; Hemosol Lg4; Hi Potency Potassium Chloride; High Potency Multivitamins & Minerals Caplets; HydroGold 9; Hyperlyte (multi-electrolyte Concentrate); Iocare Balanced Salt Solution; Ionosol B and Dextrose; Ionosol MB and Dextrose; Ionosol and Dextrose; Isolyte H With Dextrose 5% Inj; Isolyte H in Dextrose; Isolyte M In 5% Dextrose; Isolyte M in Dextrose; Isolyte P in Dextrose; Isolyte R In 5% Dextrose; Isolyte S; Isolyte S (multi-electrolyte Injection); Isolyte S Ph 7.4 (multi-electrolyte Injection); Isolyte S With 5% Dextrose Inj; Isolyte S in Dextrose; Isolyte S pH 7.4; Isoplate; Jamp-electropeg; Jamp-electropeg With Flavour Packet; Jamplyte; Jamplyte 280; K + 45; K C1-rougier; K Lor Granules 20meq; K+36.8; K-Sol; K-Tab; K-dur; K-lyte Cl; K-med; K-med 900 Tab 900mg; K-tab; K1 Liq R04911; K1 Liq R04978; K2 Liq R04902; K2 With Glucose Liq R04977; Kabiven; Kalium Durules Srt 750mg; Kaochlor-10; Kaochlor-20; Kato Pws 1.5gm; Kcl Solution A 20%; Klean-prep; Klor Con M; Klor-Con; Klor-Con Extended-release; Klor-Con M; Klor-Con M10; Klor-Con M20; Klor-Con Sprinkle; Klor-con; Klor-con M; Klor-con/25; Klotrix; Lacellate Solution - 1000; Lacellate Solution - 250; Lacellate Solution - 500; Lactated Ringer's Injection; Lactated Ringer's Injection USP; Lactated Ringer's Injection, USP; Lactated Ringer's Irrigation; Lactated Ringer's Irrigation Sol; Lactated Ringer's and 5% Dextrose; Lactated Ringer's and 5% Injection, USP; Lactated Ringers; Lactated Ringers Irrigation; Lactated Ringers and Dextrose; Lypholyte; Lypholyte Multi-electrolyte Conc Inj; Lyteprep; Medi SM 24K Gold Hydrogel Peptide Mask Pack; Micro K Extencaps Src 600mg; Micro-K 10 Extencaps; Micro-K Extencaps; Micro-K-10 Extencaps Src 750mg; Moi-stir Oral Swabsticks; Moi-stir Spray; MoviPrep; Moviprep; Multiple Electrolyte Additive Inj; Multiple Electrolyte Additive Liq Formula 1; Multiple Vitamins and Minerals; Multivitamins and Minerals Tablets; Naturalyte H-200; Naturalyte H-201; Naturalyte H-206; Naturalyte H-208; Naturalyte H-223; Naturalyte H-224; Naturalyte H-225; Naturalyte H-226; Naturalyte H-227; Naturalyte H-229; Naturalyte H-230; Naturalyte H-232; Naturalyte H-251; Naturalyte H-252; Naturalyte H-260; Naturalyte H-320; Naturalyte H-330; Naturalyte H-331; Naturalyte H-332; Naturalyte H-401; Naturalyte H-402; Naturalyte H-407; Naturalyte H-408; Naturalyte H-410; Naturalyte H-602; Naturalyte H-608; Naturalyte H-615; Naturalyte H-616; Naturalyte H-617; Naturalyte H-623; Naturalyte H-624; Naturalyte H-625; Naturalyte H-630; Naturalyte H-631; Naturalyte H-661; Naturalyte H-690; Naturalyte H-706; Navstel; Neo K; Normosol-R; Normosol-R & 5% Dextrose; Normosol-R and Dextrose; Novo-lente K Tab 600mg; NuLYTELY; NuLYTELY With Flavor Packs; Nutrilyte; Nxstage Pureflow Dialysate Concentrate (sak 303); Nxstage Pureflow Dialysate Concentrate (sak 304); Nxstage Pureflow Dialysate Concentrate (sak 305); Nxstage Pureflow Dialysate Concentrate (sak-301); Nxstage Pureflow Dialysate Concentrate (sak-302); Nxstage Pureflow Solution Rfp-204-can; Nxstage Pureflow Solution Rfp-207-can; Nxstage Pureflow Solution Rfp-209-can; Ocl Solution; Odan Balanced Salt Solution; Olimel 3.3% E; Olimel 4.4% E; Olimel 5.7% E; Olimel 7.6% E; One A Day Advance Adults; One A Day Advance Adults 50+; One Daily Vitamin and Mineral Dietary Supplement; One Per Day Vitamin and Mineral Dietary Supplement; One Tablet Daily Mens Formula; One-A-day Advance Men's; PEG-3350 and Electrolytes; PEG-3350, Electrolytes, and Ascorbate; PEG-3350, sodium chloride, sodium bicarbonate and potassium chloride; PMS-peglyte; POLYETHYLENE GLYCOL 3350, SODIUM CHLORIDE, SODIUM BICARBONATE and POTASSIUM CHLORIDE; Peg-3350; Peg-3350, Sodium Sulfate, Sodium Chloride, Potassium Chloride, Sodium Ascorbate and Ascorbic Acid; Peglyte Powder; Peglyte Solution; Perikabiven; Periolimel 2.5% E; Phoxillum B22k4/0; Phoxillum Bk4/2.5; Physiolyte; Physiosol; Plasma-Lyte 148; Plasma-Lyte 148 and dextrose; Plasma-Lyte A; Plasma-Lyte M and Dextrose; Plasma-Lyte R; Plasma-lyte A Injection; Plasmalyte 148 In 5% Dextrose Inj; Plasmalyte 148 In Water; Plegisol; Plenvu; Polyethylene Glycol 3350 and Electrolytes; Polyethylene Glycol 3350 and electrolytes with Lemon Flavor; Polyethylene Glycol 3350 and electrolyteswith Orange Flavor; Polyethylene Glycol 3350, Sodium Chloride, Sodium Bicarbonate and Potassium Chloride - Unflavored; Polyethylene Glycol 3350, Sodium Chloride, Sodium Bicarbonate and Potassium Chloride with Lemon Flavor; Polyethylene Glycol 3350, Sodium Chloride, Sodium Bicarbonate and Potassium Chloride with Orange Flavor; Polyethylene Glycol-3350 and Electrolytes; Polyethylene Glycol-3350 and Electrolytes with Flavor Pack; Polyethylene Glycol-3350, Sodium Chloride, Potassium Chloride and Sodium Bicarbonate; Potas Chlor 20meq 5% Dex and Lactate Ringer; Potas Chlor 30meq 5% Dex and 0.2% Sod Chlor; Potass Chlor 10meq 5% Dex and 0.2% Sod Chlor; Potass Chlor 30meq 5% Dex and 0.33% Sod Chlor; Potass Chlor 30meq 5% Dex and 0.45% Sod Chlor; Potass Chlor 40meq 5% Dex and 0.2% Sod Chlor; Potass Chlor 40meq 5% Dex and 0.33% Sod Chlor; Potass Chlor 40meq 5% Dex and 0.9% Sod Chlor; Potass Chloride 10meq In 5% Dextrose Inj USP; Potass Chloride 30meq In 5% Dextrose Inj USP; Potass Chloride 5% Dextr 0.45% Sod Chlor Inj; Potassium 20meq 5% Dextrose and 0.33% Sodium Chloride; Potassium Chlor 40meq 5% Dex & Lac Ring; Potassium Chloride; Potassium Chloride 20 Meq In 0.9% Sodium Chloride; Potassium Chloride 20 Meq In 3.3% Dextrose and 0.3% Sodium Chloride; Potassium Chloride 20 Meq In 5% Dextrose; Potassium Chloride 20 Meq In 5% Dextrose and 0.225% Sodium Chloride; Potassium Chloride 20 Meq In 5% Dextrose and 0.45% Sodium Chloride; Potassium Chloride 20 Meq In 5% Dextrose and 0.9% Sodium Chloride; Potassium Chloride 40 Meq In 0.9% Sodium Chloride; Potassium Chloride 40 Meq In 3.3% Dextrose and 0.3% Sodium Chloride; Potassium Chloride 40 Meq In 5% Dextrose; Potassium Chloride 40 Meq In 5% Dextrose and 0.45% Sodium Chloride; Potassium Chloride 40 Meq In 5% Dextrose and 0.9% Sodium Chloride; Potassium Chloride Bp - Additive for Concentrated Haemodialysis Solutions; Potassium Chloride ER; Potassium Chloride Extended Release; Potassium Chloride Extended-Release; Potassium Chloride In Dextrose; Potassium Chloride In Lactated Ringer's Injection; Potassium Chloride In Sodium Chloride; Potassium Chloride In Sodium Chloride Injection USP; Potassium Chloride Inj 149mg/ml USP; Potassium Chloride Inj 2meq/ml; Potassium Chloride Inj 30meq; Potassium Chloride Inj 40meq; Potassium Chloride Inj USP Liq 149mg/ml; Potassium Chloride Injection; Potassium Chloride Injection 2meq/ml; Potassium Chloride and Dextrose; Potassium Chloride for Injection Concentrate; Potassium Chloride for Injection Concentrate USP; Potassium Chloride for Injection Concentrate, USP (2 Meq/ml); Potassium Chloride for Oral Solution; Potassium Chloride in Dextrose; Potassium Chloride in Dextrose and Sodium Chloride; Potassium Chloride in Lactated Ringers and Dextrose; Potassium Chloride in Sodium Chloride; Potassium SR 600mg Tablets; Potassium chloride extended release; Potassium-36.8 0.5-4.5 (code:k-30) - Powder; Potassium-novartis; Potrassium Chloride; PrismaSol; Prismasol 2; Prismasol 4; Prismasol B22gk4/0; Prismasol Bgk2/0; Prismasol Bgk2/3.5; Prismasol Bgk4/0/1.2; Prismasol Bgk4/2.5; Prismasol Bgk4/3.5; Pro-600k Srt 600mg; ProcalAmine; Proception Sperm Nutrient Douche; Prolax - Pws; R04903 Liq; R04909 Liq; R04919 Liq; R04922 Liq; R04931 Liq; R04936 Liq; R04946 Liq; R04972 Liq; R04973 Liq; Ringer's Inj; Ringer's Injection USP; Ringers; Ringers and Dextrose; Roychlor - 10% - Liq Orl; Rs-274; Salivart Aer; Salivart Oral Moisturizer; Sb 1000; Sb 1004; Sb-110; Sb-111; Sb-119; Sb-127; Sb-131; Sb-132; Selectbag One (ax125g); Selectbag One (ax150g); Selectbag One (ax200g); Selectbag One (ax225g); Selectbag One (ax250g); Selectbag One (ax2525g); Selectbag One (ax2550g); Selectbag One (ax275g); Selectbag One (ax325g); Selectbag One (ax350g); Selectbag One (ax450g); Slo-pot; Slow K; Smofkabiven; Smofkabiven Extra Nitrogen; Smofkabiven Peripheral; Spectrum Performa Multivitamins and Minerals Tablets; Ssp+; Strong Potass Chloride Inj 0.15gm/ml; Suclear; Super Charged Energy; Sutab; TPN Electrolytes; TRILYTE with flavor packs; Thermotabs Buffered Salt Supplement; Tis-U-Sol; Tis-U-sol; Tis-U-sol Solution; Tqm Acid Concentrate A1280; TriLyte with Flavor Packs; Vamin N; Vivia Acid

> <INTERNATIONAL_BRANDS>
Kaon Cl; Kaon-CL 10; Micro-K; Sando-K; Slow-K

$$$$
767
  Mrv0541 02231214592D          

 29 31  0  0  1  0            999 V2000
    2.3660    0.6201    0.0000 O   0  0  0  0  0  0  0  0  0  0  0  0
    1.6500   -0.6601    0.0000 O   0  0  0  0  0  0  0  0  0  0  0  0
    6.0029    2.7198    0.0000 O   0  0  0  0  0  0  0  0  0  0  0  0
    7.4663    1.8748    0.0000 O   0  0  0  0  0  0  0  0  0  0  0  0
    3.0853    1.8548    0.0000 O   0  0  0  0  0  0  0  0  0  0  0  0
    4.5639   -0.6374    0.0000 N   0  0  0  0  0  0  0  0  0  0  0  0
    2.3692   -1.8948    0.0000 N   0  0  0  0  0  0  0  0  0  0  0  0
    4.5639    0.1876    0.0000 C   0  0  0  0  0  0  0  0  0  0  0  0
    3.0789   -0.6546    0.0000 C   0  0  0  0  0  0  0  0  0  0  0  0
    3.8264    0.6287    0.0000 C   0  0  0  0  0  0  0  0  0  0  0  0
    3.0789    0.2048    0.0000 C   0  0  0  0  0  0  0  0  0  0  0  0
    3.8264   -1.0784    0.0000 C   0  0  0  0  0  0  0  0  0  0  0  0
    5.2784   -1.0499    0.0000 C   0  0  0  0  0  0  0  0  0  0  0  0
    5.2784    0.6001    0.0000 C   0  0  0  0  0  0  0  0  0  0  0  0
    5.9929   -0.6374    0.0000 C   0  0  0  0  0  0  0  0  0  0  0  0
    5.9929    0.1876    0.0000 C   0  0  0  0  0  0  0  0  0  0  0  0
    2.3660   -1.0698    0.0000 C   0  0  0  0  0  0  0  0  0  0  0  0
    5.2651    1.4593    0.0000 C   0  0  0  0  0  0  0  0  0  0  0  0
    6.7436    0.6058    0.0000 C   0  0  0  0  0  0  0  0  0  0  0  0
    6.0060    1.8948    0.0000 C   0  0  0  0  0  0  0  0  0  0  0  0
    6.7502    1.4651    0.0000 C   0  0  0  0  0  0  0  0  0  0  0  0
    1.6564   -2.3100    0.0000 C   0  0  0  0  0  0  0  0  0  0  0  0
    3.0853   -2.3046    0.0000 C   0  0  0  0  0  0  0  0  0  0  0  0
    2.3692    1.4451    0.0000 C   0  0  0  0  0  0  0  0  0  0  0  0
    1.6596   -3.1350    0.0000 C   0  0  0  0  0  0  0  0  0  0  0  0
    3.0885   -3.1296    0.0000 C   0  0  0  0  0  0  0  0  0  0  0  0
    1.6564    1.8603    0.0000 C   0  0  0  0  0  0  0  0  0  0  0  0
    6.7157    3.1350    0.0000 C   0  0  0  0  0  0  0  0  0  0  0  0
    8.1792    1.4596    0.0000 C   0  0  0  0  0  0  0  0  0  0  0  0
  1 11  1  0  0  0  0
  1 24  1  0  0  0  0
  2 17  2  0  0  0  0
  3 20  1  0  0  0  0
  3 28  1  0  0  0  0
  4 21  1  0  0  0  0
  4 29  1  0  0  0  0
  5 24  2  0  0  0  0
  6  8  1  0  0  0  0
  6 12  1  0  0  0  0
  6 13  1  0  0  0  0
  7 17  1  0  0  0  0
  7 22  1  0  0  0  0
  7 23  1  0  0  0  0
  8 10  1  0  0  0  0
  8 14  1  0  0  0  0
  9 11  1  0  0  0  0
  9 12  1  0  0  0  0
  9 17  1  0  0  0  0
 10 11  1  0  0  0  0
 13 15  1  0  0  0  0
 14 16  1  0  0  0  0
 14 18  2  0  0  0  0
 15 16  1  0  0  0  0
 16 19  2  0  0  0  0
 18 20  1  0  0  0  0
 19 21  1  0  0  0  0
 20 21  2  0  0  0  0
 22 25  1  0  0  0  0
 23 26  1  0  0  0  0
 24 27  1  0  0  0  0
M  END
> <DATABASE_ID>
DB00767

> <DATABASE_NAME>
drugbank

> <SMILES>
CCN(CC)C(=O)C1CN2CCC3=CC(OC)=C(OC)C=C3C2CC1OC(C)=O

> <INCHI_IDENTIFIER>
InChI=1S/C22H32N2O5/c1-6-23(7-2)22(26)17-13-24-9-8-15-10-20(27-4)21(28-5)11-16(15)18(24)12-19(17)29-14(3)25/h10-11,17-19H,6-9,12-13H2,1-5H3

> <INCHI_KEY>
JSZILQVIPPROJI-UHFFFAOYSA-N

> <FORMULA>
C22H32N2O5

> <MOLECULAR_WEIGHT>
404.4999

> <EXACT_MASS>
404.231122144

> <JCHEM_ACCEPTOR_COUNT>
5

> <JCHEM_AVERAGE_POLARIZABILITY>
45.27184728373448

> <JCHEM_BIOAVAILABILITY>
1

> <JCHEM_DONOR_COUNT>
0

> <JCHEM_FORMAL_CHARGE>
0

> <JCHEM_GHOSE_FILTER>
1

> <JCHEM_IUPAC>
3-(diethylcarbamoyl)-9,10-dimethoxy-1H,2H,3H,4H,6H,7H,11bH-pyrido[2,1-a]isoquinolin-2-yl acetate

> <ALOGPS_LOGP>
2.49

> <JCHEM_LOGP>
1.419519497333333

> <ALOGPS_LOGS>
-2.92

> <JCHEM_MDDR_LIKE_RULE>
1

> <JCHEM_NUMBER_OF_RINGS>
3

> <JCHEM_PHYSIOLOGICAL_CHARGE>
1

> <JCHEM_PKA_STRONGEST_ACIDIC>
19.607785395751204

> <JCHEM_PKA_STRONGEST_BASIC>
7.503061934457392

> <JCHEM_POLAR_SURFACE_AREA>
68.31

> <JCHEM_REFRACTIVITY>
110.471

> <JCHEM_ROTATABLE_BOND_COUNT>
7

> <JCHEM_RULE_OF_FIVE>
1

> <ALOGPS_SOLUBILITY>
4.90e-01 g/l

> <JCHEM_TRADITIONAL_IUPAC>
benzquinamide

> <JCHEM_VEBER_RULE>
0

> <DRUGBANK_ID>
DB00767

> <SECONDARY_ACCESSION_NUMBERS>
APRD00820

> <DRUG_GROUPS>
withdrawn

> <GENERIC_NAME>
Benzquinamide

> <SYNONYMS>
benzquinamida; BZQ

> <INTERNATIONAL_BRANDS>
Benzchinamide; Emete-con; Emeticon; Promecon; Quantril

> <SALTS>
Benzquinamide hydrochloride

$$$$
774
  Mrv0541 02231214592D          

 20 21  0  0  0  0            999 V2000
    5.3809   -0.6133    0.0000 S   0  0  0  0  0  0  0  0  0  0  0  0
    2.6841   -0.8041    0.0000 S   0  0  0  0  0  0  0  0  0  0  0  0
    2.0522    0.7546    0.0000 F   0  0  0  0  0  0  0  0  0  0  0  0
    3.3162    1.8151    0.0000 F   0  0  0  0  0  0  0  0  0  0  0  0
    2.1538    1.9168    0.0000 F   0  0  0  0  0  0  0  0  0  0  0  0
    5.7851   -1.3325    0.0000 O   0  0  0  0  0  0  0  0  0  0  0  0
    4.9602   -1.3229    0.0000 O   0  0  0  0  0  0  0  0  0  0  0  0
    2.0522   -0.2739    0.0000 O   0  0  0  0  0  0  0  0  0  0  0  0
    3.3162   -1.3345    0.0000 O   0  0  0  0  0  0  0  0  0  0  0  0
    5.3809    1.0940    0.0000 N   0  0  0  0  0  0  0  0  0  0  0  0
    6.1285   -0.1893    0.0000 N   0  0  0  0  0  0  0  0  0  0  0  0
    2.1538   -1.4362    0.0000 N   0  0  0  0  0  0  0  0  0  0  0  0
    4.6434   -0.1722    0.0000 C   0  0  0  0  0  0  0  0  0  0  0  0
    4.6434    0.6528    0.0000 C   0  0  0  0  0  0  0  0  0  0  0  0
    3.2144   -0.1722    0.0000 C   0  0  0  0  0  0  0  0  0  0  0  0
    3.2144    0.6528    0.0000 C   0  0  0  0  0  0  0  0  0  0  0  0
    3.9289   -0.5847    0.0000 C   0  0  0  0  0  0  0  0  0  0  0  0
    6.1285    0.6700    0.0000 C   0  0  0  0  0  0  0  0  0  0  0  0
    3.9289    1.0653    0.0000 C   0  0  0  0  0  0  0  0  0  0  0  0
    2.6841    1.2848    0.0000 C   0  0  0  0  0  0  0  0  0  0  0  0
  1  6  2  0  0  0  0
  1  7  2  0  0  0  0
  1 11  1  0  0  0  0
  1 13  1  0  0  0  0
  2  8  2  0  0  0  0
  2  9  2  0  0  0  0
  2 12  1  0  0  0  0
  2 15  1  0  0  0  0
  3 20  1  0  0  0  0
  4 20  1  0  0  0  0
  5 20  1  0  0  0  0
 10 14  1  0  0  0  0
 10 18  1  0  0  0  0
 11 18  1  0  0  0  0
 13 14  2  0  0  0  0
 13 17  1  0  0  0  0
 14 19  1  0  0  0  0
 15 16  1  0  0  0  0
 15 17  2  0  0  0  0
 16 19  2  0  0  0  0
 16 20  1  0  0  0  0
M  END
> <DATABASE_ID>
DB00774

> <DATABASE_NAME>
drugbank

> <SMILES>
NS(=O)(=O)C1=CC2=C(NCNS2(=O)=O)C=C1C(F)(F)F

> <INCHI_IDENTIFIER>
InChI=1S/C8H8F3N3O4S2/c9-8(10,11)4-1-5-7(2-6(4)19(12,15)16)20(17,18)14-3-13-5/h1-2,13-14H,3H2,(H2,12,15,16)

> <INCHI_KEY>
DMDGGSIALPNSEE-UHFFFAOYSA-N

> <FORMULA>
C8H8F3N3O4S2

> <MOLECULAR_WEIGHT>
331.292

> <EXACT_MASS>
330.990831754

> <JCHEM_ACCEPTOR_COUNT>
5

> <JCHEM_AVERAGE_POLARIZABILITY>
25.682968710783264

> <JCHEM_BIOAVAILABILITY>
1

> <JCHEM_DONOR_COUNT>
3

> <JCHEM_FORMAL_CHARGE>
0

> <JCHEM_GHOSE_FILTER>
1

> <JCHEM_IUPAC>
1,1-dioxo-6-(trifluoromethyl)-3,4-dihydro-2H-1λ⁶,2,4-benzothiadiazine-7-sulfonamide

> <ALOGPS_LOGP>
0.44

> <JCHEM_LOGP>
-0.30181397099999996

> <ALOGPS_LOGS>
-2.59

> <JCHEM_MDDR_LIKE_RULE>
0

> <JCHEM_NUMBER_OF_RINGS>
2

> <JCHEM_PHYSIOLOGICAL_CHARGE>
0

> <JCHEM_PKA>
10.202550200977978

> <JCHEM_PKA_STRONGEST_ACIDIC>
9.065968668241249

> <JCHEM_PKA_STRONGEST_BASIC>
-2.73831760768688

> <JCHEM_POLAR_SURFACE_AREA>
118.36

> <JCHEM_REFRACTIVITY>
64.27850000000001

> <JCHEM_ROTATABLE_BOND_COUNT>
2

> <JCHEM_RULE_OF_FIVE>
1

> <ALOGPS_SOLUBILITY>
8.58e-01 g/l

> <JCHEM_TRADITIONAL_IUPAC>
hydroflumethiazide

> <JCHEM_VEBER_RULE>
0

> <DRUGBANK_ID>
DB00774

> <SECONDARY_ACCESSION_NUMBERS>
APRD01020

> <DRUG_GROUPS>
approved; investigational; withdrawn

> <GENERIC_NAME>
Hydroflumethiazide

> <SYNONYMS>
Dihydroflumethazide; Hidroflumetiazid; Hidroflumetiazida; Hydrofluméthiazide; Hydroflumethiazide; Hydroflumethiazidum; Idroflumetiazide; Metforylthiadiazin

> <PRODUCTS>
Saluron

> <INTERNATIONAL_BRANDS>
Leodrine

$$$$

  Mrv0541 04191212142D          
 
 58 60  0  0  1  0            999 V2000
    1.4289   -0.4125    0.0000 C   0  0  1  0  0  0  0  0  0  0  0  0
    0.7145   -0.8250    0.0000 C   0  0  2  0  0  0  0  0  0  0  0  0
    0.7145    0.8250    0.0000 C   0  0  0  0  0  0  0  0  0  0  0  0
    0.7145   -1.6500    0.0000 C   0  0  1  0  0  0  0  0  0  0  0  0
    0.7145    1.6500    0.0000 C   0  0  2  0  0  0  0  0  0  0  0  0
    0.0000   -2.0625    0.0000 C   0  0  2  0  0  0  0  0  0  0  0  0
    0.0000    2.0625    0.0000 C   0  0  0  0  0  0  0  0  0  0  0  0
   -0.7145   -1.6500    0.0000 C   0  0  0  0  0  0  0  0  0  0  0  0
   -0.7145    1.6500    0.0000 C   0  0  1  0  0  0  0  0  0  0  0  0
   -0.7145   -0.8250    0.0000 O   0  0  0  0  0  0  0  0  0  0  0  0
   -0.7145    0.8250    0.0000 C   0  0  1  0  0  0  0  0  0  0  0  0
   -1.4289   -0.4125    0.0000 C   0  0  2  0  0  0  0  0  0  0  0  0
    2.1434   -0.8250    0.0000 O   0  0  0  0  0  0  0  0  0  0  0  0
    0.0000   -0.4125    0.0000 C   0  0  0  0  0  0  0  0  0  0  0  0
    2.8578   -0.4125    0.0000 C   0  0  1  0  0  0  0  0  0  0  0  0
    1.4289   -2.0625    0.0000 O   0  0  0  0  0  0  0  0  0  0  0  0
    3.5723   -0.8250    0.0000 C   0  0  1  0  0  0  0  0  0  0  0  0
    2.8578    0.4125    0.0000 O   0  0  0  0  0  0  0  0  0  0  0  0
    1.4289    2.0625    0.0000 C   0  0  0  0  0  0  0  0  0  0  0  0
    1.4289   -2.8875    0.0000 C   0  0  1  0  0  0  0  0  0  0  0  0
    0.0000   -2.8875    0.0000 C   0  0  0  0  0  0  0  0  0  0  0  0
    4.2868   -0.4125    0.0000 C   0  0  2  0  0  0  0  0  0  0  0  0
    3.5723   -1.6500    0.0000 O   0  0  0  0  0  0  0  0  0  0  0  0
    3.5723    0.8250    0.0000 C   0  0  1  0  0  0  0  0  0  0  0  0
    0.0000    2.8875    0.0000 N   0  0  0  0  0  0  0  0  0  0  0  0
    0.7144   -3.3000    0.0000 C   0  0  0  0  0  0  0  0  0  0  0  0
    2.1434   -3.3000    0.0000 O   0  0  0  0  0  0  0  0  0  0  0  0
   -1.4290   -2.0625    0.0000 O   0  0  0  0  0  0  0  0  0  0  0  0
    4.2868    0.4125    0.0000 C   0  0  0  0  0  0  0  0  0  0  0  0
    5.0013   -0.8250    0.0000 N   0  0  0  0  0  0  0  0  0  0  0  0
    3.5723    1.6500    0.0000 C   0  0  0  0  0  0  0  0  0  0  0  0
   -1.4290    2.0625    0.0000 C   0  0  0  0  0  0  0  0  0  0  0  0
    2.1434   -4.1250    0.0000 C   0  0  2  0  0  0  0  0  0  0  0  0
    5.7157   -0.4125    0.0000 C   0  0  0  0  0  0  0  0  0  0  0  0
    5.0013   -1.6500    0.0000 C   0  0  0  0  0  0  0  0  0  0  0  0
    0.0000    0.4125    0.0000 O   0  0  0  0  0  0  0  0  0  0  0  0
    1.4289   -4.5375    0.0000 C   0  0  2  0  0  0  0  0  0  0  0  0
    2.8578   -4.5375    0.0000 C   0  0  0  0  0  0  0  0  0  0  0  0
    1.4289   -5.3625    0.0000 O   0  0  0  0  0  0  0  0  0  0  0  0
    0.7144   -4.1250    0.0000 C   0  0  2  0  0  0  0  0  0  0  0  0
    0.7144    3.3000    0.0000 O   0  0  0  0  0  0  0  0  0  0  0  0
    1.4289    2.8875    0.0000 C   0  0  0  0  0  0  0  0  0  0  0  0
    2.1434    3.3000    0.0000 O   0  0  0  0  0  0  0  0  0  0  0  0
    2.8578    2.8875    0.0000 C   0  0  0  0  0  0  0  0  0  0  0  0
    3.5723    3.3000    0.0000 C   0  0  0  0  0  0  0  0  0  0  0  0
    4.2868    2.8875    0.0000 O   0  0  0  0  0  0  0  0  0  0  0  0
    5.0013    3.3000    0.0000 C   0  0  0  0  0  0  0  0  0  0  0  0
   -2.1435   -0.8250    0.0000 C   0  0  0  0  0  0  0  0  0  0  0  0
   -2.8579   -0.4125    0.0000 C   0  0  0  0  0  0  0  0  0  0  0  0
    0.7144   -4.9500    0.0000 O   0  0  0  0  0  0  0  0  0  0  0  0
   -0.0001   -5.3625    0.0000 C   0  0  0  0  0  0  0  0  0  0  0  0
    0.0000   -4.5375    0.0000 C   0  0  0  0  0  0  0  0  0  0  0  0
   -1.4289    0.4125    0.0000 C   0  0  1  0  0  0  0  0  0  0  0  0
    1.4289    0.4125    0.0000 C   0  0  1  0  0  0  0  0  0  0  0  0
   -1.4289    1.2375    0.0000 O   0  0  0  0  0  0  0  0  0  0  0  0
    1.4289    1.2375    0.0000 O   0  0  0  0  0  0  0  0  0  0  0  0
   -2.1434    0.8249    0.0000 C   0  0  0  0  0  0  0  0  0  0  0  0
    2.1434    0.8250    0.0000 C   0  0  0  0  0  0  0  0  0  0  0  0
  1 13  1  6  0  0  0
  1 54  1  0  0  0  0
 54 58  1  6  0  0  0
  2  1  1  0  0  0  0
  2 14  1  6  0  0  0
 54  3  1  0  0  0  0
  2  4  1  0  0  0  0
  4 16  1  6  0  0  0
  3  5  1  0  0  0  0
  5 19  1  6  0  0  0
  4  6  1  0  0  0  0
  6 21  1  1  0  0  0
  5  7  1  0  0  0  0
  7 25  2  0  0  0  0
  6  8  1  0  0  0  0
  8 28  2  0  0  0  0
  9  7  1  0  0  0  0
  9 32  1  1  0  0  0
  8 10  1  0  0  0  0
 11  9  1  0  0  0  0
 11 36  1  1  0  0  0
 12 10  1  0  0  0  0
 12 48  1  6  0  0  0
 53 12  1  0  0  0  0
 11 53  1  0  0  0  0
 53 57  1  6  0  0  0
 15 13  1  6  0  0  0
 15 17  1  0  0  0  0
 15 18  1  0  0  0  0
 20 16  1  6  0  0  0
 17 22  1  0  0  0  0
 17 23  1  1  0  0  0
 18 24  1  0  0  0  0
 20 26  1  0  0  0  0
 20 27  1  0  0  0  0
 22 29  1  0  0  0  0
 22 30  1  6  0  0  0
 24 31  1  6  0  0  0
 24 29  1  0  0  0  0
 25 41  1  4  0  0  0
 26 40  1  0  0  0  0
 27 33  1  0  0  0  0
 30 34  1  0  0  0  0
 30 35  1  0  0  0  0
 33 38  1  1  0  0  0
 33 37  1  0  0  0  0
 40 37  1  0  0  0  0
 37 39  1  6  0  0  0
 40 50  1  6  0  0  0
 40 52  1  1  0  0  0
 41 42  1  0  0  0  0
 42 43  1  0  0  0  0
 43 44  1  0  0  0  0
 44 45  1  0  0  0  0
 45 46  1  0  0  0  0
 46 47  1  0  0  0  0
 48 49  1  0  0  0  0
 50 51  1  0  0  0  0
 53 55  1  1  0  0  0
 54 56  1  1  0  0  0
M  END
> <DATABASE_ID>
DB00778

> <DATABASE_NAME>
drugbank

> <SMILES>
CC[C@H]1OC(=O)[C@H](C)[C@@H](O[C@H]2C[C@@](C)(OC)[C@@H](O)[C@H](C)O2)[C@H](C)[C@@H](O[C@@H]2O[C@H](C)C[C@@H]([C@H]2O)N(C)C)[C@](C)(O)C[C@@H](C)C(=NOCOCCOC)[C@H](C)[C@@H](O)[C@]1(C)O

> <INCHI_IDENTIFIER>
InChI=1S/C41H76N2O15/c1-15-29-41(10,49)34(45)24(4)31(42-53-21-52-17-16-50-13)22(2)19-39(8,48)36(58-38-32(44)28(43(11)12)18-23(3)54-38)25(5)33(26(6)37(47)56-29)57-30-20-40(9,51-14)35(46)27(7)55-30/h22-30,32-36,38,44-46,48-49H,15-21H2,1-14H3/t22-,23-,24+,25+,26-,27+,28+,29-,30+,32-,33+,34-,35+,36-,38+,39-,40-,41-/m1/s1

> <INCHI_KEY>
RXZBMPWDPOLZGW-HITVVWEBSA-N

> <FORMULA>
C41H76N2O15

> <MOLECULAR_WEIGHT>
837.0465

> <EXACT_MASS>
836.524569772

> <JCHEM_ACCEPTOR_COUNT>
16

> <JCHEM_AVERAGE_POLARIZABILITY>
91.84204207809985

> <JCHEM_BIOAVAILABILITY>
0

> <JCHEM_DONOR_COUNT>
5

> <JCHEM_FORMAL_CHARGE>
0

> <JCHEM_GHOSE_FILTER>
0

> <JCHEM_IUPAC>
(3R,4S,5S,6R,7R,9R,11S,12R,13S,14R)-6-{[(2S,3R,4S,6R)-4-(dimethylamino)-3-hydroxy-6-methyloxan-2-yl]oxy}-14-ethyl-7,12,13-trihydroxy-4-{[(2R,4R,5S,6S)-5-hydroxy-4-methoxy-4,6-dimethyloxan-2-yl]oxy}-3,5,7,9,11,13-hexamethyl-10-(2,4,7-trioxa-1-azaoctan-1-ylidene)-1-oxacyclotetradecan-2-one

> <ALOGPS_LOGP>
2.90

> <JCHEM_LOGP>
2.9999792816666657

> <ALOGPS_LOGS>
-3.65

> <JCHEM_MDDR_LIKE_RULE>
1

> <JCHEM_NUMBER_OF_RINGS>
3

> <JCHEM_PHYSIOLOGICAL_CHARGE>
1

> <JCHEM_PKA>
12.92600080812036

> <JCHEM_PKA_STRONGEST_ACIDIC>
12.454023231880175

> <JCHEM_PKA_STRONGEST_BASIC>
9.07976724746385

> <JCHEM_POLAR_SURFACE_AREA>
216.88999999999993

> <JCHEM_REFRACTIVITY>
211.23760000000007

> <JCHEM_ROTATABLE_BOND_COUNT>
13

> <JCHEM_RULE_OF_FIVE>
0

> <ALOGPS_SOLUBILITY>
1.87e-01 g/l

> <JCHEM_TRADITIONAL_IUPAC>
roxiβ

> <JCHEM_VEBER_RULE>
0

> <DRUGBANK_ID>
DB00778

> <SECONDARY_ACCESSION_NUMBERS>
APRD01305

> <DRUG_GROUPS>
approved; investigational; withdrawn

> <GENERIC_NAME>
Roxithromycin

> <SYNONYMS>
(9E)-erythromycin 9-(O-((2-methoxyethoxy)methyl)oxime); Roxithromycin; Roxithromycine; Roxithromycinum; Roxitromicina

> <INTERNATIONAL_BRANDS>
Acevor; Actirox; Ai Luo Xin; Allolide; Ammirox; Anti-Bio; Ao Ge Shen; Aparox; Arbid; Aroxe; Asmetic; Assoral; Aswad; Azuril; Bazuctril; BD-Rox; Bei Ke; Bei Sha; Bi Ai Di; Biaxsig; Bicofen; Biostatik; Claramid; Coroxin; Delitroxin; Delos; Dorolid; Elrox; Erybros; Eslid; Guamil; Heng Te; Hycin; I-Throcin; Infectoroxit; Inrox; Ixor; Klomicina; Ladlid; Lang Su; Le Er Tai; Le Xi Qing; Li Fu; Lizhuxing; Ludin; Luo Jun Qing; Luo Shi Li; Luo Si Mei; Luprex; Macrol; Macrolid; Marulide; Neo-Suxigal; Nirox; Odirox; Overal; Pedilid; Pedrox; Pinsheng; Plethirox; Poliroxin; Pu Hong; Pymeroxitil; Qi Wei; Ramivan; Redotrin; Remora; Ren Su; Renicin; Ridinfect; Ritosin; Rocin; Rokithrid; Roksimin; Rolexit; Rolicyn; Romac; Romicin; Romycin; Romyk; Ropit; Rossitrol; Rothricin; Rotram; Rovenal; Roxamed; Roxar; Roxcin; Roxemicin; Roxeptin; Roxetomin; Roxi; Roxi-Fatol; Roxi-Puren; Roxi-Q; Roxi-saar; Roxibest; Roxibeta; Roxibron; Roxicin; Roxicur; Roxicure; Roxid; Roxide; Roxidura; Roxigamma; Roxigrün; Roxihexal; Roxikid; Roxil; Roxilan; Roximac; Roximain; Roximax; Roximed; Roximerck; Roximic; Roximin; Roximisan; Roximol; Roximycin; Roxinga; Roxinox; Roxiratio; Roxirocin; Roxisara; Roxistad; Roxitas; Roxitazon; Roxithrin; Roxithro; Roxithrostad; Roxitil; Roxitin; Roxitis; Roxitop; Roxitran; Roxitrom; Roxitromycine; Roxitron; Roxivar; Roxivinol; Roxivista; Roxl-150; Roxo; Roxomycin; Roxy; Roxy-150; Rulid; Rulide; Rulide D; Surlid; Tirabicin; Xthrocin

$$$$
793
  Mrv0541 02231215002D          

 14 14  0  0  0  0            999 V2000
    3.7934    3.0938    0.0000 I   0  0  0  0  0  0  0  0  0  0  0  0
    1.6500   -0.6188    0.0000 Cl  0  0  0  0  0  0  0  0  0  0  0  0
    4.5079   -2.2688    0.0000 Cl  0  0  0  0  0  0  0  0  0  0  0  0
    3.0790   -3.0938    0.0000 Cl  0  0  0  0  0  0  0  0  0  0  0  0
    3.0790    0.2063    0.0000 O   0  0  0  0  0  0  0  0  0  0  0  0
    3.0790   -0.6188    0.0000 C   0  0  0  0  0  0  0  0  0  0  0  0
    2.3644   -1.0313    0.0000 C   0  0  0  0  0  0  0  0  0  0  0  0
    3.7934   -1.0313    0.0000 C   0  0  0  0  0  0  0  0  0  0  0  0
    3.7934   -1.8563    0.0000 C   0  0  0  0  0  0  0  0  0  0  0  0
    2.3644   -1.8563    0.0000 C   0  0  0  0  0  0  0  0  0  0  0  0
    3.0790   -2.2688    0.0000 C   0  0  0  0  0  0  0  0  0  0  0  0
    3.7934    0.6188    0.0000 C   0  0  0  0  0  0  0  0  0  0  0  0
    3.7934    1.4438    0.0000 C   0  0  0  0  0  0  0  0  0  0  0  0
    3.7934    2.2688    0.0000 C   0  0  0  0  0  0  0  0  0  0  0  0
  1 14  1  0  0  0  0
  2  7  1  0  0  0  0
  3  9  1  0  0  0  0
  4 11  1  0  0  0  0
  5  6  1  0  0  0  0
  5 12  1  0  0  0  0
  6  7  1  0  0  0  0
  6  8  2  0  0  0  0
  7 10  2  0  0  0  0
  8  9  1  0  0  0  0
  9 11  2  0  0  0  0
 10 11  1  0  0  0  0
 12 13  1  0  0  0  0
 13 14  3  0  0  0  0
M  END
> <DATABASE_ID>
DB00793

> <DATABASE_NAME>
drugbank

> <SMILES>
ClC1=CC(Cl)=C(Cl)C=C1OCC#CI

> <INCHI_IDENTIFIER>
InChI=1S/C9H4Cl3IO/c10-6-4-8(12)9(5-7(6)11)14-3-1-2-13/h4-5H,3H2

> <INCHI_KEY>
CTETYYAZBPJBHE-UHFFFAOYSA-N

> <FORMULA>
C9H4Cl3IO

> <MOLECULAR_WEIGHT>
361.391

> <EXACT_MASS>
359.837241291

> <JCHEM_ACCEPTOR_COUNT>
1

> <JCHEM_AVERAGE_POLARIZABILITY>
26.81779081943042

> <JCHEM_BIOAVAILABILITY>
1

> <JCHEM_DONOR_COUNT>
0

> <JCHEM_FORMAL_CHARGE>
0

> <JCHEM_GHOSE_FILTER>
0

> <JCHEM_IUPAC>
1,2,4-trichloro-5-[(3-iodoprop-2-yn-1-yl)oxy]benzene

> <ALOGPS_LOGP>
4.69

> <JCHEM_LOGP>
4.8453

> <ALOGPS_LOGS>
-4.78

> <JCHEM_MDDR_LIKE_RULE>
0

> <JCHEM_NUMBER_OF_RINGS>
1

> <JCHEM_PHYSIOLOGICAL_CHARGE>
0

> <JCHEM_PKA_STRONGEST_BASIC>
-4.962264068206132

> <JCHEM_POLAR_SURFACE_AREA>
9.23

> <JCHEM_REFRACTIVITY>
66.87900000000002

> <JCHEM_ROTATABLE_BOND_COUNT>
3

> <JCHEM_RULE_OF_FIVE>
1

> <ALOGPS_SOLUBILITY>
6.01e-03 g/l

> <JCHEM_TRADITIONAL_IUPAC>
haloprogin

> <JCHEM_VEBER_RULE>
1

> <DRUGBANK_ID>
DB00793

> <SECONDARY_ACCESSION_NUMBERS>
APRD01011

> <DRUG_GROUPS>
approved; withdrawn

> <GENERIC_NAME>
Haloprogin

> <SYNONYMS>
Haloprogin; Haloprogina; Haloprogine; Haloproginum

> <INTERNATIONAL_BRANDS>
Aloprogen; Halotex; Mycanden; Mycilan; Polik

$$$$
801
  Mrv0541 02231215012D          

 24 26  0  0  0  0            999 V2000
    4.0267   -2.3989    0.0000 Cl  0  0  0  0  0  0  0  0  0  0  0  0
    2.8159    2.2807    0.0000 F   0  0  0  0  0  0  0  0  0  0  0  0
    1.6936    1.0712    0.0000 F   0  0  0  0  0  0  0  0  0  0  0  0
    1.6500    2.2371    0.0000 F   0  0  0  0  0  0  0  0  0  0  0  0
    4.2399    2.3989    0.0000 O   0  0  0  0  0  0  0  0  0  0  0  0
    3.6638    0.9312    0.0000 N   0  0  0  0  0  0  0  0  0  0  0  0
    5.5176    0.9312    0.0000 N   0  0  0  0  0  0  0  0  0  0  0  0
    3.8475    0.1269    0.0000 C   0  0  0  0  0  0  0  0  0  0  0  0
    4.5907   -0.2311    0.0000 C   0  0  0  0  0  0  0  0  0  0  0  0
    2.8595    1.1148    0.0000 C   0  0  0  0  0  0  0  0  0  0  0  0
    5.3340    0.1269    0.0000 C   0  0  0  0  0  0  0  0  0  0  0  0
    4.1782    1.5762    0.0000 C   0  0  0  0  0  0  0  0  0  0  0  0
    5.0032    1.5762    0.0000 C   0  0  0  0  0  0  0  0  0  0  0  0
    3.1301   -0.3462    0.0000 C   0  0  0  0  0  0  0  0  0  0  0  0
    4.6682   -1.0869    0.0000 C   0  0  0  0  0  0  0  0  0  0  0  0
    5.9790   -0.3875    0.0000 C   0  0  0  0  0  0  0  0  0  0  0  0
    2.2548    1.6759    0.0000 C   0  0  0  0  0  0  0  0  0  0  0  0
    3.1876   -1.2036    0.0000 C   0  0  0  0  0  0  0  0  0  0  0  0
    3.9619   -1.5765    0.0000 C   0  0  0  0  0  0  0  0  0  0  0  0
    6.7470   -0.0860    0.0000 C   0  0  0  0  0  0  0  0  0  0  0  0
    5.8561   -1.2033    0.0000 C   0  0  0  0  0  0  0  0  0  0  0  0
    7.3920   -0.6004    0.0000 C   0  0  0  0  0  0  0  0  0  0  0  0
    6.5011   -1.7176    0.0000 C   0  0  0  0  0  0  0  0  0  0  0  0
    7.2691   -1.4163    0.0000 C   0  0  0  0  0  0  0  0  0  0  0  0
  1 19  1  0  0  0  0
  2 17  1  0  0  0  0
  3 17  1  0  0  0  0
  4 17  1  0  0  0  0
  5 12  2  0  0  0  0
  6  8  1  0  0  0  0
  6 10  1  0  0  0  0
  6 12  1  0  0  0  0
  7 11  2  0  0  0  0
  7 13  1  0  0  0  0
  8  9  2  0  0  0  0
  8 14  1  0  0  0  0
  9 11  1  0  0  0  0
  9 15  1  0  0  0  0
 10 17  1  0  0  0  0
 11 16  1  0  0  0  0
 12 13  1  0  0  0  0
 14 18  2  0  0  0  0
 15 19  2  0  0  0  0
 16 20  2  0  0  0  0
 16 21  1  0  0  0  0
 18 19  1  0  0  0  0
 20 22  1  0  0  0  0
 21 23  2  0  0  0  0
 22 24  2  0  0  0  0
 23 24  1  0  0  0  0
M  END
> <DATABASE_ID>
DB00801

> <DATABASE_NAME>
drugbank

> <SMILES>
FC(F)(F)CN1C2=C(C=C(Cl)C=C2)C(=NCC1=O)C1=CC=CC=C1

> <INCHI_IDENTIFIER>
InChI=1S/C17H12ClF3N2O/c18-12-6-7-14-13(8-12)16(11-4-2-1-3-5-11)22-9-15(24)23(14)10-17(19,20)21/h1-8H,9-10H2

> <INCHI_KEY>
WYCLKVQLVUQKNZ-UHFFFAOYSA-N

> <FORMULA>
C17H12ClF3N2O

> <MOLECULAR_WEIGHT>
352.738

> <EXACT_MASS>
352.059025338

> <JCHEM_ACCEPTOR_COUNT>
2

> <JCHEM_AVERAGE_POLARIZABILITY>
31.824300722372104

> <JCHEM_BIOAVAILABILITY>
1

> <JCHEM_DONOR_COUNT>
0

> <JCHEM_FORMAL_CHARGE>
0

> <JCHEM_GHOSE_FILTER>
1

> <JCHEM_IUPAC>
7-chloro-5-phenyl-1-(2,2,2-trifluoroethyl)-2,3-dihydro-1H-1,4-benzodiazepin-2-one

> <ALOGPS_LOGP>
3.52

> <JCHEM_LOGP>
4.0311828043333335

> <ALOGPS_LOGS>
-5.32

> <JCHEM_MDDR_LIKE_RULE>
0

> <JCHEM_NUMBER_OF_RINGS>
3

> <JCHEM_PHYSIOLOGICAL_CHARGE>
0

> <JCHEM_PKA_STRONGEST_ACIDIC>
18.878327984730664

> <JCHEM_PKA_STRONGEST_BASIC>
2.3251494399058754

> <JCHEM_POLAR_SURFACE_AREA>
32.67

> <JCHEM_REFRACTIVITY>
85.26200000000001

> <JCHEM_ROTATABLE_BOND_COUNT>
3

> <JCHEM_RULE_OF_FIVE>
1

> <ALOGPS_SOLUBILITY>
1.70e-03 g/l

> <JCHEM_TRADITIONAL_IUPAC>
halazepam

> <JCHEM_VEBER_RULE>
1

> <DRUGBANK_ID>
DB00801

> <SECONDARY_ACCESSION_NUMBERS>
APRD01009

> <DRUG_GROUPS>
approved; illicit; withdrawn

> <GENERIC_NAME>
Halazepam

> <SYNONYMS>
Halazépam; Halazepam; Halazepamum

> <INTERNATIONAL_BRANDS>
Alapryl; Pacinone; Paxipam

$$$$
821
  Mrv0541 02231215022D          

 19 21  0  0  1  0            999 V2000
    1.5842   -1.3784    0.0000 Cl  0  0  0  0  0  0  0  0  0  0  0  0
    7.9413   -0.2544    0.0000 O   0  0  0  0  0  0  0  0  0  0  0  0
    6.9253   -1.1762    0.0000 O   0  0  0  0  0  0  0  0  0  0  0  0
    3.8588    0.8874    0.0000 N   0  0  0  0  0  0  0  0  0  0  0  0
    4.2548   -0.3315    0.0000 C   0  0  0  0  0  0  0  0  0  0  0  0
    4.4997    0.4218    0.0000 C   0  0  0  0  0  0  0  0  0  0  0  0
    3.4628   -0.3315    0.0000 C   0  0  0  0  0  0  0  0  0  0  0  0
    5.8607   -0.0031    0.0000 C   0  0  0  0  0  0  0  0  0  0  0  0
    3.2180    0.4218    0.0000 C   0  0  0  0  0  0  0  0  0  0  0  0
    6.6348    0.1646    0.0000 C   0  0  0  0  0  0  0  0  0  0  0  0
    5.3039    0.6058    0.0000 C   0  0  0  0  0  0  0  0  0  0  0  0
    4.7974   -0.9531    0.0000 C   0  0  0  0  0  0  0  0  0  0  0  0
    5.6057   -0.7878    0.0000 C   0  0  0  0  0  0  0  0  0  0  0  0
    2.9203   -0.9531    0.0000 C   0  0  0  0  0  0  0  0  0  0  0  0
    2.4137    0.6058    0.0000 C   0  0  0  0  0  0  0  0  0  0  0  0
    6.8767    0.9188    0.0000 C   0  0  0  0  0  0  0  0  0  0  0  0
    2.1119   -0.7878    0.0000 C   0  0  0  0  0  0  0  0  0  0  0  0
    7.1672   -0.4220    0.0000 C   0  0  0  0  0  0  0  0  0  0  0  0
    1.8570   -0.0031    0.0000 C   0  0  0  0  0  0  0  0  0  0  0  0
  1 17  1  0  0  0  0
  2 18  1  0  0  0  0
  3 18  2  0  0  0  0
  4  6  1  0  0  0  0
  4  9  1  0  0  0  0
  5  6  2  0  0  0  0
  5  7  1  0  0  0  0
  5 12  1  0  0  0  0
  6 11  1  0  0  0  0
  7  9  2  0  0  0  0
  7 14  1  0  0  0  0
  8 10  1  0  0  0  0
  8 11  2  0  0  0  0
  8 13  1  0  0  0  0
  9 15  1  0  0  0  0
 10 16  1  0  0  0  0
 10 18  1  0  0  0  0
 12 13  2  0  0  0  0
 14 17  2  0  0  0  0
 15 19  2  0  0  0  0
 17 19  1  0  0  0  0
M  END
> <DATABASE_ID>
DB00821

> <DATABASE_NAME>
drugbank

> <SMILES>
CC(C(O)=O)C1=CC2=C(C=C1)C1=C(N2)C=CC(Cl)=C1

> <INCHI_IDENTIFIER>
InChI=1S/C15H12ClNO2/c1-8(15(18)19)9-2-4-11-12-7-10(16)3-5-13(12)17-14(11)6-9/h2-8,17H,1H3,(H,18,19)

> <INCHI_KEY>
PUXBGTOOZJQSKH-UHFFFAOYSA-N

> <FORMULA>
C15H12ClNO2

> <MOLECULAR_WEIGHT>
273.714

> <EXACT_MASS>
273.05565634

> <JCHEM_ACCEPTOR_COUNT>
2

> <JCHEM_AVERAGE_POLARIZABILITY>
28.558252351664283

> <JCHEM_BIOAVAILABILITY>
1

> <JCHEM_DONOR_COUNT>
2

> <JCHEM_FORMAL_CHARGE>
0

> <JCHEM_GHOSE_FILTER>
1

> <JCHEM_IUPAC>
2-(6-chloro-9H-carbazol-2-yl)propanoic acid

> <ALOGPS_LOGP>
4.09

> <JCHEM_LOGP>
3.8756649333333324

> <ALOGPS_LOGS>
-4.86

> <JCHEM_MDDR_LIKE_RULE>
0

> <JCHEM_NUMBER_OF_RINGS>
3

> <JCHEM_PHYSIOLOGICAL_CHARGE>
-1

> <JCHEM_PKA>
14.80425798051407

> <JCHEM_PKA_STRONGEST_ACIDIC>
4.415797667111492

> <JCHEM_POLAR_SURFACE_AREA>
53.089999999999996

> <JCHEM_REFRACTIVITY>
74.15910000000001

> <JCHEM_ROTATABLE_BOND_COUNT>
2

> <JCHEM_RULE_OF_FIVE>
1

> <ALOGPS_SOLUBILITY>
3.79e-03 g/l

> <JCHEM_TRADITIONAL_IUPAC>
carprofen

> <JCHEM_VEBER_RULE>
0

> <DRUGBANK_ID>
DB00821

> <SECONDARY_ACCESSION_NUMBERS>
APRD00849

> <DRUG_GROUPS>
approved; vet_approved; withdrawn

> <GENERIC_NAME>
Carprofen

> <SYNONYMS>
(+/-)-2-(3-chloro-9H-carbazol-7-yl)propanoic acid; (±)-6-chloro-α-methylcarbazole-2-acetic acid; 2-(6-Chloro-9H-carbazol-2-yl)-propionic acid; 6-chloro-α-methyl-9H-carbazole-2-acetic acid; Carprofen; Carprofène; Carprofeno; Carprofenum

> <INTERNATIONAL_BRANDS>
lmadyl; lmafen; Rimadyt

$$$$
827
  Mrv0541 02231215022D          

 19 21  0  0  0  0            999 V2000
    7.2157   -0.4535    0.0000 O   0  0  0  0  0  0  0  0  0  0  0  0
    7.2157    0.8743    0.0000 O   0  0  0  0  0  0  0  0  0  0  0  0
    4.2780    1.8890    0.0000 O   0  0  0  0  0  0  0  0  0  0  0  0
    2.0920    0.6456    0.0000 O   0  0  0  0  0  0  0  0  0  0  0  0
    2.8112    1.8803    0.0000 O   0  0  0  0  0  0  0  0  0  0  0  0
    4.2685   -0.6433    0.0000 N   0  0  0  0  0  0  0  0  0  0  0  0
    3.5210   -0.2193    0.0000 N   0  0  0  0  0  0  0  0  0  0  0  0
    5.0060   -0.2021    0.0000 C   0  0  0  0  0  0  0  0  0  0  0  0
    5.0060    0.6229    0.0000 C   0  0  0  0  0  0  0  0  0  0  0  0
    6.4350   -0.2021    0.0000 C   0  0  0  0  0  0  0  0  0  0  0  0
    5.7205   -0.6146    0.0000 C   0  0  0  0  0  0  0  0  0  0  0  0
    6.4350    0.6229    0.0000 C   0  0  0  0  0  0  0  0  0  0  0  0
    5.7205    1.0354    0.0000 C   0  0  0  0  0  0  0  0  0  0  0  0
    4.2780   -1.4682    0.0000 C   0  0  0  0  0  0  0  0  0  0  0  0
    4.2685    1.0640    0.0000 C   0  0  0  0  0  0  0  0  0  0  0  0
    3.5210    0.6400    0.0000 C   0  0  0  0  0  0  0  0  0  0  0  0
    7.6972    0.2104    0.0000 C   0  0  0  0  0  0  0  0  0  0  0  0
    3.5684   -1.8890    0.0000 C   0  0  0  0  0  0  0  0  0  0  0  0
    2.8081    1.0553    0.0000 C   0  0  0  0  0  0  0  0  0  0  0  0
  1 10  1  0  0  0  0
  1 17  1  0  0  0  0
  2 12  1  0  0  0  0
  2 17  1  0  0  0  0
  3 15  2  0  0  0  0
  4 19  1  0  0  0  0
  5 19  2  0  0  0  0
  6  7  1  0  0  0  0
  6  8  1  0  0  0  0
  6 14  1  0  0  0  0
  7 16  2  0  0  0  0
  8  9  1  0  0  0  0
  8 11  2  0  0  0  0
  9 13  2  0  0  0  0
  9 15  1  0  0  0  0
 10 11  1  0  0  0  0
 10 12  2  0  0  0  0
 12 13  1  0  0  0  0
 14 18  1  0  0  0  0
 15 16  1  0  0  0  0
 16 19  1  0  0  0  0
M  END
> <DATABASE_ID>
DB00827

> <DATABASE_NAME>
drugbank

> <SMILES>
CCN1N=C(C(O)=O)C(=O)C2=CC3=C(OCO3)C=C12

> <INCHI_IDENTIFIER>
InChI=1S/C12H10N2O5/c1-2-14-7-4-9-8(18-5-19-9)3-6(7)11(15)10(13-14)12(16)17/h3-4H,2,5H2,1H3,(H,16,17)

> <INCHI_KEY>
VDUWPHTZYNWKRN-UHFFFAOYSA-N

> <FORMULA>
C12H10N2O5

> <MOLECULAR_WEIGHT>
262.2182

> <EXACT_MASS>
262.05897144

> <JCHEM_ACCEPTOR_COUNT>
7

> <JCHEM_AVERAGE_POLARIZABILITY>
24.72192384473809

> <JCHEM_BIOAVAILABILITY>
1

> <JCHEM_DONOR_COUNT>
1

> <JCHEM_FORMAL_CHARGE>
0

> <JCHEM_GHOSE_FILTER>
1

> <JCHEM_IUPAC>
1-ethyl-4-oxo-1H,4H,7H-[1,3]dioxolo[4,5-g]cinnoline-3-carboxylic acid

> <ALOGPS_LOGP>
1.25

> <JCHEM_LOGP>
1.716116835333333

> <ALOGPS_LOGS>
-2.44

> <JCHEM_MDDR_LIKE_RULE>
0

> <JCHEM_NUMBER_OF_RINGS>
3

> <JCHEM_PHYSIOLOGICAL_CHARGE>
-1

> <JCHEM_PKA_STRONGEST_ACIDIC>
4.930532150363794

> <JCHEM_PKA_STRONGEST_BASIC>
-4.626802411018023

> <JCHEM_POLAR_SURFACE_AREA>
88.43

> <JCHEM_REFRACTIVITY>
73.6022

> <JCHEM_ROTATABLE_BOND_COUNT>
2

> <JCHEM_RULE_OF_FIVE>
1

> <ALOGPS_SOLUBILITY>
9.61e-01 g/l

> <JCHEM_TRADITIONAL_IUPAC>
cinoxacin

> <JCHEM_VEBER_RULE>
0

> <DRUGBANK_ID>
DB00827

> <SECONDARY_ACCESSION_NUMBERS>
APRD00873

> <DRUG_GROUPS>
approved; investigational; withdrawn

> <GENERIC_NAME>
Cinoxacin

> <SYNONYMS>
1-ethyl-6,7-methylenedioxy-4(1H)-oxocinnoline-3-carboxylic acid; 5-Ethyl-8-oxo-5,8-dihydro-1,3-dioxa-5,6-diaza-cyclopenta[b]naphthalene-7-carboxylic acid; Cinoxacin; Cinoxacine; Cinoxacino; Cinoxacinum

> <INTERNATIONAL_BRANDS>
Cinobac; Mecicon; Tatsulexin; Urocinox

$$$$
848
  Mrv0541 02231215032D          

 14 16  0  0  1  0            999 V2000
    6.1753   -0.6639    0.0000 S   0  0  0  0  0  0  0  0  0  0  0  0
    5.3946    0.4125    0.0000 N   0  0  0  0  0  0  0  0  0  0  0  0
    4.6100   -0.6674    0.0000 N   0  0  0  0  0  0  0  0  0  0  0  0
    4.6100    0.6674    0.0000 C   0  0  0  0  0  0  0  0  0  0  0  0
    4.1251    0.0000    0.0000 C   0  0  2  0  0  0  0  0  0  0  0  0
    6.1753    0.6639    0.0000 C   0  0  0  0  0  0  0  0  0  0  0  0
    5.3946   -0.4125    0.0000 C   0  0  0  0  0  0  0  0  0  0  0  0
    6.6568    0.0000    0.0000 C   0  0  0  0  0  0  0  0  0  0  0  0
    3.3001    0.0000    0.0000 C   0  0  0  0  0  0  0  0  0  0  0  0
    2.8876   -0.7145    0.0000 C   0  0  0  0  0  0  0  0  0  0  0  0
    2.8876    0.7145    0.0000 C   0  0  0  0  0  0  0  0  0  0  0  0
    2.0625   -0.7145    0.0000 C   0  0  0  0  0  0  0  0  0  0  0  0
    2.0625    0.7145    0.0000 C   0  0  0  0  0  0  0  0  0  0  0  0
    1.6500    0.0000    0.0000 C   0  0  0  0  0  0  0  0  0  0  0  0
  1  7  1  0  0  0  0
  1  8  1  0  0  0  0
  2  4  1  0  0  0  0
  2  6  1  0  0  0  0
  2  7  1  0  0  0  0
  3  5  1  0  0  0  0
  3  7  2  0  0  0  0
  4  5  1  0  0  0  0
  5  9  1  1  0  0  0
  6  8  1  0  0  0  0
  9 10  2  0  0  0  0
  9 11  1  0  0  0  0
 10 12  1  0  0  0  0
 11 13  2  0  0  0  0
 12 14  2  0  0  0  0
 13 14  1  0  0  0  0
M  END
> <DATABASE_ID>
DB00848

> <DATABASE_NAME>
drugbank

> <SMILES>
C1CN2C[C@@H](N=C2S1)C1=CC=CC=C1

> <INCHI_IDENTIFIER>
InChI=1S/C11H12N2S/c1-2-4-9(5-3-1)10-8-13-6-7-14-11(13)12-10/h1-5,10H,6-8H2/t10-/m1/s1

> <INCHI_KEY>
HLFSDGLLUJUHTE-SNVBAGLBSA-N

> <FORMULA>
C11H12N2S

> <MOLECULAR_WEIGHT>
204.291

> <EXACT_MASS>
204.072119084

> <JCHEM_ACCEPTOR_COUNT>
2

> <JCHEM_AVERAGE_POLARIZABILITY>
22.352427742945707

> <JCHEM_BIOAVAILABILITY>
1

> <JCHEM_DONOR_COUNT>
0

> <JCHEM_FORMAL_CHARGE>
0

> <JCHEM_GHOSE_FILTER>
1

> <JCHEM_IUPAC>
(6S)-6-phenyl-2H,3H,5H,6H-imidazo[2,1-b][1,3]thiazole

> <ALOGPS_LOGP>
2.20

> <JCHEM_LOGP>
2.3582269016666664

> <ALOGPS_LOGS>
-2.15

> <JCHEM_MDDR_LIKE_RULE>
0

> <JCHEM_NUMBER_OF_RINGS>
3

> <JCHEM_PHYSIOLOGICAL_CHARGE>
0

> <JCHEM_PKA_STRONGEST_BASIC>
6.975299007898724

> <JCHEM_POLAR_SURFACE_AREA>
15.6

> <JCHEM_REFRACTIVITY>
60.078400000000016

> <JCHEM_ROTATABLE_BOND_COUNT>
1

> <JCHEM_RULE_OF_FIVE>
1

> <ALOGPS_SOLUBILITY>
1.44e+00 g/l

> <JCHEM_TRADITIONAL_IUPAC>
levamisole

> <JCHEM_VEBER_RULE>
1

> <DRUGBANK_ID>
DB00848

> <SECONDARY_ACCESSION_NUMBERS>
APRD01067

> <DRUG_GROUPS>
approved; investigational; vet_approved; withdrawn

> <GENERIC_NAME>
Levamisole

> <SYNONYMS>
Levamisol; Levamisole; Levamisolum

> <PRODUCTS>
Ergamisol Tab 50mg; Novo-levamisole

> <INTERNATIONAL_BRANDS>
Ergamisol; Ketrax

> <SALTS>
Levamisole hydrochloride; Levamisole phosphate; Levamisole resinate

$$$$

  Mrv1909 06131922332D          

 21 21  0  0  0  0            999 V2000
    3.8084   -0.4047    0.0000 N   0  3  0  0  0  0  0  0  0  0  0  0
    3.1409    0.0070    0.0000 C   0  0  0  0  0  0  0  0  0  0  0  0
    3.1409    0.7597    0.0000 C   0  0  0  0  0  0  0  0  0  0  0  0
   -2.4120    0.7361    0.0000 C   0  0  0  0  0  0  0  0  0  0  0  0
   -1.7586    1.1716    0.0000 O   0  0  0  0  0  0  0  0  0  0  0  0
   -1.0722    0.7361    0.0000 C   0  0  0  0  0  0  0  0  0  0  0  0
   -2.1562   -0.0639    0.0000 C   0  0  0  0  0  0  0  0  0  0  0  0
   -1.3278   -0.0639    0.0000 C   0  0  0  0  0  0  0  0  0  0  0  0
    4.5042   -0.0306    0.0000 O   0  5  0  0  0  0  0  0  0  0  0  0
    3.8273   -1.1716    0.0000 O   0  0  0  0  0  0  0  0  0  0  0  0
   -3.1220    1.1716    0.0000 C   0  0  0  0  0  0  0  0  0  0  0  0
    3.8416    1.1716    0.0000 N   0  0  0  0  0  0  0  0  0  0  0  0
    2.4071    1.1716    0.0000 N   0  0  0  0  0  0  0  0  0  0  0  0
   -3.8179    0.7361    0.0000 N   0  0  0  0  0  0  0  0  0  0  0  0
    0.3289    0.7597    0.0000 S   0  0  0  0  0  0  0  0  0  0  0  0
   -0.3763    1.1716    0.0000 C   0  0  0  0  0  0  0  0  0  0  0  0
    1.7255    0.7597    0.0000 C   0  0  0  0  0  0  0  0  0  0  0  0
    1.0106    1.1716    0.0000 C   0  0  0  0  0  0  0  0  0  0  0  0
   -3.8179   -0.0639    0.0000 C   0  0  0  0  0  0  0  0  0  0  0  0
   -4.5232    1.1716    0.0000 C   0  0  0  0  0  0  0  0  0  0  0  0
    4.5232    0.7597    0.0000 C   0  0  0  0  0  0  0  0  0  0  0  0
  2  1  1  0  0  0  0
  3  2  2  3  0  0  0
  4  5  1  0  0  0  0
  5  6  1  0  0  0  0
  6 16  1  0  0  0  0
  7  8  1  0  0  0  0
  8  6  2  0  0  0  0
  9  1  1  0  0  0  0
 10  1  2  0  0  0  0
 11  4  1  0  0  0  0
 12  3  1  0  0  0  0
 13  3  1  0  0  0  0
 14 11  1  0  0  0  0
 15 18  1  0  0  0  0
 16 15  1  0  0  0  0
 17 13  1  0  0  0  0
 18 17  1  0  0  0  0
 19 14  1  0  0  0  0
 20 14  1  0  0  0  0
 21 12  1  0  0  0  0
  7  4  2  0  0  0  0
M  CHG  2   1   1   9  -1
M  END
> <DATABASE_ID>
DB00863

> <DATABASE_NAME>
drugbank

> <SMILES>
CNC(NCCSCC1=CC=C(CN(C)C)O1)=C[N+]([O-])=O

> <INCHI_IDENTIFIER>
InChI=1S/C13H22N4O3S/c1-14-13(9-17(18)19)15-6-7-21-10-12-5-4-11(20-12)8-16(2)3/h4-5,9,14-15H,6-8,10H2,1-3H3

> <INCHI_KEY>
VMXUWOKSQNHOCA-UHFFFAOYSA-N

> <FORMULA>
C13H22N4O3S

> <MOLECULAR_WEIGHT>
314.4

> <EXACT_MASS>
314.141261758

> <JCHEM_ACCEPTOR_COUNT>
5

> <JCHEM_ATOM_COUNT>
43

> <JCHEM_AVERAGE_POLARIZABILITY>
33.78088494008356

> <JCHEM_BIOAVAILABILITY>
1

> <JCHEM_DONOR_COUNT>
2

> <JCHEM_FORMAL_CHARGE>
0

> <JCHEM_GHOSE_FILTER>
1

> <JCHEM_IUPAC>
[1-({2-[({5-[(dimethylamino)methyl]furan-2-yl}methyl)sulfanyl]ethyl}amino)-2-nitroethenyl](methyl)amine

> <ALOGPS_LOGP>
0.79

> <JCHEM_LOGP>
0.9907784663333329

> <ALOGPS_LOGS>
-3.60

> <JCHEM_MDDR_LIKE_RULE>
0

> <JCHEM_NUMBER_OF_RINGS>
1

> <JCHEM_PHYSIOLOGICAL_CHARGE>
1

> <JCHEM_PKA_STRONGEST_BASIC>
7.796122506041848

> <JCHEM_POLAR_SURFACE_AREA>
83.57999999999998

> <JCHEM_REFRACTIVITY>
94.1488

> <JCHEM_ROTATABLE_BOND_COUNT>
10

> <JCHEM_RULE_OF_FIVE>
1

> <ALOGPS_SOLUBILITY>
7.95e-02 g/l

> <JCHEM_TRADITIONAL_IUPAC>
[1-({2-[({5-[(dimethylamino)methyl]furan-2-yl}methyl)sulfanyl]ethyl}amino)-2-nitroethenyl](methyl)amine

> <JCHEM_VEBER_RULE>
0

> <DRUGBANK_ID>
DB00863

> <SECONDARY_ACCESSION_NUMBERS>
APRD00254

> <DRUG_GROUPS>
approved; withdrawn

> <GENERIC_NAME>
Ranitidine

> <SYNONYMS>
Ranitidina; Ranitidine; Ranitidinum

> <PRODUCTS>
7 Select Acid Reducer; Acid Reducer; Acid Reducer 150; Acid Reducer 75; Acid Reducer Maximum Strength; Acid Reducer Maximum Strength Non-prescription; Acid Reducer Regular Strength; Acid Relief; Act Ranitidine; Ag-ranitidine; Apo-ranitidine; Apo-ranitidine Tablet 150mg; Apo-ranitidine Tablet 300mg; Aptidine 75; Basic Care Acid Reducer; Basic Care Acid Reducer 150; Basic Care Acid Reducer 75; Bci Ranitidine; Being Well Heartburn Relief; Being Well Heartburn Relief Acid Reducer; Berkley and Jensen Acid Reducer; Berkley and Jensen Acid Reducer Maximum Strength; Berkley and Jensen Ranitidine; Care One Acid Reducer; CareOne Acid Reducer; CareOne Acid Relief; Careone Acid Reducer; Cool Mint Acid Reducer; DG Health Acid Reducer; DG Health Acid Reducer Maximum Strength; Deprizine; DeramsilkRx Anodynexa Pak; DermacinRx Inflammatral Pak; Dg Health Acid Reducer; Dg Health Heartburn Relief; Dom-ranitidine; Equaline; Equaline Acid Reducer; Equaline Heartburn Relief; Equate Acid Reducer; Equate Ranitidine; Equate Ranitidine Acid Reducer; Exchange Select Acid Reducer; Family Wellness Acid Reducer; Family Wellness Acid Reducer 150; Family Wellness acid reducer; Formu Care Ranitidine; FormuCare Ranitidine; Gabitidine; Good Neighbor Pharmacy Acid Control; Good Neighbor Pharmacy Acid Control 150; Good Neighbor Pharmacy Acid Control 150 Maximum Strength; Good Neighbor Pharmacy acid control; Good Sense Acid Reducer; HEARTBURN RELIEVER 150 Maximum Strength; HEARTBURN RELIEVER 75 Regular Strength; Harris Teeter Acid Reducer; Harris Teeter Acid Reducer 150; Health Mart Acid Reducer; Health Mart acid reducer; Healthy Accents Ranitidine; Heartburn Relief; Heartburn Relief 150; Heartburn Relief 150 Maximum Strength; Heartburn Relief Acid Reducer; Heartburn Relief Maximum Strength; Heratburn Relief; Inflammation Reduction Pack; Jamp-ranitidine; Kirkland Signature Acid Reducer; Leader Acid Control; Leader Acid Control Acid Reducer; Leader Acid Control Maximum Strength; Leader Ranitidine; M-ranitidine; Major Ranitidine Maximum Strength; Mar-ranitidine; Maximum Strength; Maximum Strength Acid Reducer; Maximum Strength Acid Reducer Without Prescription; Maximum Strength Ranitidine; Maximum Strength Zantac; Med Ranitidine Tablets 150mg; Medique Medi-Acid Reducer 150; Myl-ranitidine; Mylan-ranitidine; Nu-ranit Tab 150mg; Nu-ranit Tab 300mg; PHL-ranitidine; PMS-ranitidine 150 mg; PMS-ranitidine 300 mg; Priva-ranitidine; Pylorid; Ran-ranitidine; Ranitidine; Ranitidine - Acid Reducer; Ranitidine 150; Ranitidine 150 Cool Mint; Ranitidine 150 mg; Ranitidine 300 mg; Ranitidine 75; Ranitidine 75 mg; Ranitidine Acid Reducer; Ranitidine Hydrochloride; Ranitidine Hydrochloride Oral Suspension Kit; Ranitidine Immediate release; Ranitidine Injection USP; Ranitidine Non Prescription; Ranitidine Tablets; Ranitidine Tablets 150mg; Ranitidine Tablets 300mg; Ranitidine cool mint; Ratio-ranitidine; Regular Strength Acid Reducer; Rexall Heartburn Relief; Riva-ranitidine 150; Riva-ranitidine 300; Riva-ranitidine 75mg; Rx Act Heartburn Relief; Sandoz Ranitidine; Scheinpharm Ranitidine 150 mg; Scheinpharm Ranitidine 300 mg; Sentradine; ShopRite Acid Reducer; ShopRite Acid Reducer Maximum Strength; Signature Care Acid Control; Smart Sense Acid Reducer; Smart Sense Ranitidine; Sound Body Acid Reducer 150; Sunmark Acid Reducer Maximum Strength; Sunmark acid reducer; Teva-ranitidine; Teva-ranitidine Injection; Teva-ranitidine Solution; TopCare Heartburn Relief; TopCare Heartburn Relief 150; Topcare Heartburn Relief 150; Tria-ranitidine 150mg Tablet; Tria-ranitidine 300mg Tablet; Up and Up Acid Reducer Non Prescription Strength; Up and Up Ranitidine; Up and Up Ranitidine 150; Wal Zan 150; Wal Zan 75; Wal Zan Acid Reducer Maximum Strength; Wal-Zan; Wal-Zan 75; ZANTAC EFFERdose; Zantac; Zantac 150; Zantac 150 Acid Reducer; Zantac 150 Maximum Strength; Zantac 150 Maximum Strength Cool Mint; Zantac 75; Zantac 75 Regular Strength; Zantac Maximum Strength 150 Cool Mint; Zantac Maximum Strength Non-prescription; Zantac Oral Solution 15mg/ml; Zantac Tab 150mg; Zantac Tab 300mg; Zantac-C Cap 150mg; Zantac-C Cap 300mg

> <INTERNATIONAL_BRANDS>
Alquen; Gastrolav; Gastrosedol; Kuracid; Ptinolin; Raniberl; Ranicux; Ranidil; Ranidin; Ranidine; Ranidura; Ranigast; Raniplex; Ranisan; Ranitab; Ranitic; Ranitidin; Ranitin; Ranitine; Ranobel; Rantacid; Ranuber; Renatac; Sostril; Tanidina; Toriol; Ulcodin; Zandid; Zantic

> <SALTS>
Ranitidine bismuth citrate; Ranitidine hydrochloride

$$$$
866
  Mrv0541 02231215042D          

 18 18  0  0  1  0            999 V2000
    4.5080   -0.6188    0.0000 O   0  0  0  0  0  0  0  0  0  0  0  0
    4.5080    1.0313    0.0000 O   0  0  0  0  0  0  0  0  0  0  0  0
    5.9370    1.8563    0.0000 N   0  0  0  0  0  0  0  0  0  0  0  0
    5.2224    0.6188    0.0000 C   0  0  0  0  0  0  0  0  0  0  0  0
    5.9370    1.0313    0.0000 C   0  0  0  0  0  0  0  0  0  0  0  0
    6.6515    2.2688    0.0000 C   0  0  0  0  0  0  0  0  0  0  0  0
    5.2224   -0.2063    0.0000 C   0  0  0  0  0  0  0  0  0  0  0  0
    7.3659    1.8563    0.0000 C   0  0  0  0  0  0  0  0  0  0  0  0
    6.6515    3.0938    0.0000 C   0  0  0  0  0  0  0  0  0  0  0  0
    4.5080   -1.4438    0.0000 C   0  0  0  0  0  0  0  0  0  0  0  0
    3.7935   -1.8563    0.0000 C   0  0  0  0  0  0  0  0  0  0  0  0
    3.0791   -1.4438    0.0000 C   0  0  0  0  0  0  0  0  0  0  0  0
    5.2224   -1.8563    0.0000 C   0  0  0  0  0  0  0  0  0  0  0  0
    3.7935   -2.6813    0.0000 C   0  0  0  0  0  0  0  0  0  0  0  0
    5.2224   -2.6813    0.0000 C   0  0  0  0  0  0  0  0  0  0  0  0
    4.5080   -3.0938    0.0000 C   0  0  0  0  0  0  0  0  0  0  0  0
    2.3645   -1.8563    0.0000 C   0  0  0  0  0  0  0  0  0  0  0  0
    1.6500   -1.4438    0.0000 C   0  0  0  0  0  0  0  0  0  0  0  0
  1  7  1  0  0  0  0
  1 10  1  0  0  0  0
  2  4  1  0  0  0  0
  3  5  1  0  0  0  0
  3  6  1  0  0  0  0
  4  5  1  0  0  0  0
  4  7  1  0  0  0  0
  6  8  1  0  0  0  0
  6  9  1  0  0  0  0
 10 11  1  0  0  0  0
 10 13  2  0  0  0  0
 11 12  1  0  0  0  0
 11 14  2  0  0  0  0
 12 17  1  0  0  0  0
 13 15  1  0  0  0  0
 14 16  1  0  0  0  0
 15 16  2  0  0  0  0
 17 18  2  0  0  0  0
M  END
> <DATABASE_ID>
DB00866

> <DATABASE_NAME>
drugbank

> <SMILES>
CC(C)NCC(O)COC1=CC=CC=C1CC=C

> <INCHI_IDENTIFIER>
InChI=1S/C15H23NO2/c1-4-7-13-8-5-6-9-15(13)18-11-14(17)10-16-12(2)3/h4-6,8-9,12,14,16-17H,1,7,10-11H2,2-3H3

> <INCHI_KEY>
PAZJSJFMUHDSTF-UHFFFAOYSA-N

> <FORMULA>
C15H23NO2

> <MOLECULAR_WEIGHT>
249.3486

> <EXACT_MASS>
249.172878985

> <JCHEM_ACCEPTOR_COUNT>
3

> <JCHEM_AVERAGE_POLARIZABILITY>
29.383222905592554

> <JCHEM_BIOAVAILABILITY>
1

> <JCHEM_DONOR_COUNT>
2

> <JCHEM_FORMAL_CHARGE>
0

> <JCHEM_GHOSE_FILTER>
1

> <JCHEM_IUPAC>
1-[2-(prop-2-en-1-yl)phenoxy]-3-[(propan-2-yl)amino]propan-2-ol

> <ALOGPS_LOGP>
2.59

> <JCHEM_LOGP>
2.6927899056666664

> <ALOGPS_LOGS>
-3.12

> <JCHEM_MDDR_LIKE_RULE>
0

> <JCHEM_NUMBER_OF_RINGS>
1

> <JCHEM_PHYSIOLOGICAL_CHARGE>
1

> <JCHEM_PKA_STRONGEST_ACIDIC>
14.087952044634939

> <JCHEM_PKA_STRONGEST_BASIC>
9.666166510504235

> <JCHEM_POLAR_SURFACE_AREA>
41.49

> <JCHEM_REFRACTIVITY>
74.66280000000002

> <JCHEM_ROTATABLE_BOND_COUNT>
8

> <JCHEM_RULE_OF_FIVE>
1

> <ALOGPS_SOLUBILITY>
1.88e-01 g/l

> <JCHEM_TRADITIONAL_IUPAC>
1-(isopropylamino)-3-[2-(prop-2-en-1-yl)phenoxy]propan-2-ol

> <JCHEM_VEBER_RULE>
0

> <DRUGBANK_ID>
DB00866

> <SECONDARY_ACCESSION_NUMBERS>
APRD00736

> <DRUG_GROUPS>
experimental; withdrawn

> <GENERIC_NAME>
Alprenolol

> <SYNONYMS>
(RS)-1-(2-allylphenoxy)-3-(isopropylamino)propan-2-ol; 1-(2-Allylphenoxy)-3-isopropylamino-2-propanol; 1-(o-Allylphenoxy)-3-(isopropylamino)-2-propanol; Alfeprol; Alprenolol; Alprénolol; Alprenololum; Aprenololo

> <INTERNATIONAL_BRANDS>
Apllobal; Aptin; Aptine; Aptol Duriles; Atenenol; Elp; Gubernal; Regletin; Skajilol; Yobir

> <SALTS>
Alprenolol hydrochloride

$$$$
870
  Mrv0541 02231215042D          

 18 19  0  0  1  0            999 V2000
    3.8797    2.9274    0.0000 S   0  0  0  0  0  0  0  0  0  0  0  0
    2.3645   -2.8432    0.0000 O   0  0  0  0  0  0  0  0  0  0  0  0
    1.6500   -1.6056    0.0000 O   0  0  0  0  0  0  0  0  0  0  0  0
    2.3645    2.1069    0.0000 O   0  0  0  0  0  0  0  0  0  0  0  0
    3.0790   -1.6056    0.0000 C   0  0  0  0  0  0  0  0  0  0  0  0
    3.0790   -0.7806    0.0000 C   0  0  0  0  0  0  0  0  0  0  0  0
    2.3645   -0.3681    0.0000 C   0  0  0  0  0  0  0  0  0  0  0  0
    3.7935   -0.3681    0.0000 C   0  0  0  0  0  0  0  0  0  0  0  0
    3.0790    0.8694    0.0000 C   0  0  0  0  0  0  0  0  0  0  0  0
    3.7935   -2.0181    0.0000 C   0  0  0  0  0  0  0  0  0  0  0  0
    2.3645    0.4569    0.0000 C   0  0  0  0  0  0  0  0  0  0  0  0
    3.7935    0.4569    0.0000 C   0  0  0  0  0  0  0  0  0  0  0  0
    2.3645   -2.0181    0.0000 C   0  0  0  0  0  0  0  0  0  0  0  0
    3.0790    1.6944    0.0000 C   0  0  0  0  0  0  0  0  0  0  0  0
    3.7935    2.1069    0.0000 C   0  0  0  0  0  0  0  0  0  0  0  0
    4.5471    1.7713    0.0000 C   0  0  0  0  0  0  0  0  0  0  0  0
    5.0992    2.3845    0.0000 C   0  0  0  0  0  0  0  0  0  0  0  0
    4.6867    3.0989    0.0000 C   0  0  0  0  0  0  0  0  0  0  0  0
  1 15  1  0  0  0  0
  1 18  1  0  0  0  0
  2 13  1  0  0  0  0
  3 13  2  0  0  0  0
  4 14  2  0  0  0  0
  5  6  1  0  0  0  0
  5 10  1  0  0  0  0
  5 13  1  0  0  0  0
  6  7  2  0  0  0  0
  6  8  1  0  0  0  0
  7 11  1  0  0  0  0
  8 12  2  0  0  0  0
  9 11  2  0  0  0  0
  9 12  1  0  0  0  0
  9 14  1  0  0  0  0
 14 15  1  0  0  0  0
 15 16  2  0  0  0  0
 16 17  1  0  0  0  0
 17 18  2  0  0  0  0
M  END
> <DATABASE_ID>
DB00870

> <DATABASE_NAME>
drugbank

> <SMILES>
CC(C(O)=O)C1=CC=C(C=C1)C(=O)C1=CC=CS1

> <INCHI_IDENTIFIER>
InChI=1S/C14H12O3S/c1-9(14(16)17)10-4-6-11(7-5-10)13(15)12-3-2-8-18-12/h2-9H,1H3,(H,16,17)

> <INCHI_KEY>
MDKGKXOCJGEUJW-UHFFFAOYSA-N

> <FORMULA>
C14H12O3S

> <MOLECULAR_WEIGHT>
260.308

> <EXACT_MASS>
260.05071494

> <JCHEM_ACCEPTOR_COUNT>
3

> <JCHEM_AVERAGE_POLARIZABILITY>
26.838067657526643

> <JCHEM_BIOAVAILABILITY>
1

> <JCHEM_DONOR_COUNT>
1

> <JCHEM_FORMAL_CHARGE>
0

> <JCHEM_GHOSE_FILTER>
1

> <JCHEM_IUPAC>
2-[4-(thiophene-2-carbonyl)phenyl]propanoic acid

> <ALOGPS_LOGP>
3.16

> <JCHEM_LOGP>
3.526214794

> <ALOGPS_LOGS>
-3.79

> <JCHEM_MDDR_LIKE_RULE>
0

> <JCHEM_NUMBER_OF_RINGS>
2

> <JCHEM_PHYSIOLOGICAL_CHARGE>
-1

> <JCHEM_PKA_STRONGEST_ACIDIC>
4.011917248549982

> <JCHEM_PKA_STRONGEST_BASIC>
-7.805115519476987

> <JCHEM_POLAR_SURFACE_AREA>
54.37

> <JCHEM_REFRACTIVITY>
69.40550000000002

> <JCHEM_ROTATABLE_BOND_COUNT>
4

> <JCHEM_RULE_OF_FIVE>
1

> <ALOGPS_SOLUBILITY>
4.22e-02 g/l

> <JCHEM_TRADITIONAL_IUPAC>
suprofen

> <JCHEM_VEBER_RULE>
0

> <DRUGBANK_ID>
DB00870

> <SECONDARY_ACCESSION_NUMBERS>
APRD00230

> <DRUG_GROUPS>
approved; withdrawn

> <GENERIC_NAME>
Suprofen

> <SYNONYMS>
(±)-2-(p-(2-thenoyl)phenyl)propionic acid; 2-(4-(2-Thenoyl)phenyl)propionsäure; 2-[4-(Thiophene-2-carbonyl)-phenyl]-propionic acid; 4-(2-Thenoyl)hydratropsäure; p-2-thenoylhydratropic acid; Suprofen; Suprofene; Suprofeno; Suprofenum; Sutoprofen; α-methyl-4-(2-thienylcarbonyl)benzeneacetic acid

> <PRODUCTS>
Profenal

> <INTERNATIONAL_BRANDS>
Srendam; Sulprotin; Topalgic

$$$$

  Mrv1572004221605162D          

 31 34  0  0  0  0            999 V2000
    3.5724    1.2375    0.0000 C   0  0  0  0  0  0  0  0  0  0  0  0
    3.5724    2.0625    0.0000 C   0  0  0  0  0  0  0  0  0  0  0  0
    0.7145   -0.4125    0.0000 C   0  0  0  0  0  0  0  0  0  0  0  0
    2.8579    0.8250    0.0000 C   0  0  0  0  0  0  0  0  0  0  0  0
    1.4289   -0.0000    0.0000 C   0  0  0  0  0  0  0  0  0  0  0  0
    2.8579    2.4750    0.0000 C   0  0  0  0  0  0  0  0  0  0  0  0
   -0.7145    2.0625    0.0000 C   0  0  0  0  0  0  0  0  0  0  0  0
    0.0000    2.4750    0.0000 C   0  0  0  0  0  0  0  0  0  0  0  0
    0.7145   -1.2375    0.0000 C   0  0  0  0  0  0  0  0  0  0  0  0
   -0.7145   -1.2375    0.0000 C   0  0  0  0  0  0  0  0  0  0  0  0
   -0.0000   -2.4750    0.0000 C   0  0  0  0  0  0  0  0  0  0  0  0
   -1.4289   -1.6500    0.0000 C   0  0  0  0  0  0  0  0  0  0  0  0
   -0.7145   -2.8875    0.0000 C   0  0  0  0  0  0  0  0  0  0  0  0
   -2.1434   -2.8875    0.0000 C   0  0  0  0  0  0  0  0  0  0  0  0
   -2.8579   -2.4750    0.0000 C   0  0  0  0  0  0  0  0  0  0  0  0
   -0.0000    0.8250    0.0000 C   0  0  0  0  0  0  0  0  0  0  0  0
   -0.7145    1.2375    0.0000 C   0  0  0  0  0  0  0  0  0  0  0  0
    1.4289    0.8250    0.0000 C   0  0  0  0  0  0  0  0  0  0  0  0
    2.1434    1.2375    0.0000 C   0  0  0  0  0  0  0  0  0  0  0  0
    0.7145    1.2375    0.0000 C   0  0  0  0  0  0  0  0  0  0  0  0
    2.1434    2.0625    0.0000 C   0  0  0  0  0  0  0  0  0  0  0  0
    0.7145    2.0625    0.0000 C   0  0  0  0  0  0  0  0  0  0  0  0
   -1.4289    0.8250    0.0000 C   0  0  0  0  0  0  0  0  0  0  0  0
   -2.1434    0.4125    0.0000 F   0  0  0  0  0  0  0  0  0  0  0  0
   -1.0164    0.1105    0.0000 F   0  0  0  0  0  0  0  0  0  0  0  0
   -1.8414    1.5395    0.0000 F   0  0  0  0  0  0  0  0  0  0  0  0
   -0.0000   -1.6500    0.0000 N   0  0  0  0  0  0  0  0  0  0  0  0
   -1.4289   -2.4750    0.0000 N   0  0  0  0  0  0  0  0  0  0  0  0
   -3.5724   -2.8875    0.0000 O   0  0  0  0  0  0  0  0  0  0  0  0
    1.4289    2.4750    0.0000 S   0  0  0  0  0  0  0  0  0  0  0  0
    2.1434   -0.4125    0.0000 H   0  0  0  0  0  0  0  0  0  0  0  0
  2  1  2  0  0  0  0
  4  1  1  0  0  0  0
  5  3  1  0  0  0  0
  6  2  1  0  0  0  0
  8  7  2  0  0  0  0
  9  3  1  0  0  0  0
 12 10  1  0  0  0  0
 13 11  1  0  0  0  0
 15 14  1  0  0  0  0
 17  7  1  0  0  0  0
 17 16  2  0  0  0  0
 18  5  2  0  0  0  0
 19  4  2  0  0  0  0
 19 18  1  0  0  0  0
 20 16  1  0  0  0  0
 20 18  1  0  0  0  0
 21  6  2  0  0  0  0
 21 19  1  0  0  0  0
 22  8  1  0  0  0  0
 22 20  2  0  0  0  0
 23 17  1  0  0  0  0
 24 23  1  0  0  0  0
 25 23  1  0  0  0  0
 26 23  1  0  0  0  0
 27  9  1  0  0  0  0
 27 10  1  0  0  0  0
 27 11  1  0  0  0  0
 28 12  1  0  0  0  0
 28 13  1  0  0  0  0
 28 14  1  0  0  0  0
 29 15  1  0  0  0  0
 30 21  1  0  0  0  0
 30 22  1  0  0  0  0
 31  5  1  0  0  0  0
M  END
> <DATABASE_ID>
DB00875

> <DATABASE_NAME>
drugbank

> <SMILES>
[H]\C(CCN1CCN(CCO)CC1)=C1/C2=CC=CC=C2SC2=C1C=C(C=C2)C(F)(F)F

> <INCHI_IDENTIFIER>
InChI=1S/C23H25F3N2OS/c24-23(25,26)17-7-8-22-20(16-17)18(19-4-1-2-6-21(19)30-22)5-3-9-27-10-12-28(13-11-27)14-15-29/h1-2,4-8,16,29H,3,9-15H2/b18-5-

> <INCHI_KEY>
NJMYODHXAKYRHW-DVZOWYKESA-N

> <FORMULA>
C23H25F3N2OS

> <MOLECULAR_WEIGHT>
434.52

> <EXACT_MASS>
434.163969096

> <JCHEM_ACCEPTOR_COUNT>
3

> <JCHEM_ATOM_COUNT>
55

> <JCHEM_AVERAGE_POLARIZABILITY>
44.78942344013997

> <JCHEM_BIOAVAILABILITY>
1

> <JCHEM_DONOR_COUNT>
1

> <JCHEM_FORMAL_CHARGE>
0

> <JCHEM_GHOSE_FILTER>
1

> <JCHEM_IUPAC>
2-(4-{3-[(9Z)-2-(trifluoromethyl)-9H-thioxanthen-9-ylidene]propyl}piperazin-1-yl)ethan-1-ol

> <ALOGPS_LOGP>
4.56

> <JCHEM_LOGP>
4.496787735333333

> <ALOGPS_LOGS>
-5.04

> <JCHEM_MDDR_LIKE_RULE>
1

> <JCHEM_NUMBER_OF_RINGS>
4

> <JCHEM_PHYSIOLOGICAL_CHARGE>
1

> <JCHEM_PKA_STRONGEST_ACIDIC>
15.593098171378148

> <JCHEM_PKA_STRONGEST_BASIC>
8.428423544962852

> <JCHEM_POLAR_SURFACE_AREA>
26.71

> <JCHEM_REFRACTIVITY>
128.16920000000002

> <JCHEM_ROTATABLE_BOND_COUNT>
6

> <JCHEM_RULE_OF_FIVE>
1

> <ALOGPS_SOLUBILITY>
3.99e-03 g/l

> <JCHEM_TRADITIONAL_IUPAC>
α-flupenthixol

> <JCHEM_VEBER_RULE>
1

> <DRUGBANK_ID>
DB00875

> <SECONDARY_ACCESSION_NUMBERS>
APRD00388

> <DRUG_GROUPS>
approved; investigational; withdrawn

> <GENERIC_NAME>
Flupentixol

> <SYNONYMS>
Flupenthixol; Flupenthixole; Flupentixol; Flupentixolo; Flupentixolum

> <PRODUCTS>
Fluanxol 0.5mg - Tab; Fluanxol 3mg - Tab; Fluanxol Depot 10%- Liq Im 100mg/ml; Fluanxol Depot 2% -liq Im 20mg/ml; Fluanxol Depot Inj 100mg/ml; Fluanxol Depot Inj 20mg/ml; Fluanxol Tab 0.5mg; Fluanxol Tab 3mg; Flupentixol Decanoate Injection BP

> <INTERNATIONAL_BRANDS>
Depixol; Fluanxol; Jexit

> <SALTS>
Flupentixol decanoate; Flupentixol dihydrochloride

$$$$

  Mrv1718008301816152D          

 34 36  0  0  0  0            999 V2000
    1.7764   -1.0575    0.0000 C   0  0  0  0  0  0  0  0  0  0  0  0
    1.0359    0.9994    0.0000 C   0  0  0  0  0  0  0  0  0  0  0  0
    0.3339   -1.0721    0.0000 C   0  0  0  0  0  0  0  0  0  0  0  0
    1.0745   -1.4836    0.0000 O   0  0  0  0  0  0  0  0  0  0  0  0
    1.0504    0.1718    0.0000 O   0  0  0  0  0  0  0  0  0  0  0  0
    0.3389   -0.2493    0.0000 C   0  0  0  0  0  0  0  0  0  0  0  0
   -0.3726   -1.4980    0.0000 C   0  0  0  0  0  0  0  0  0  0  0  0
   -1.0890   -1.0914    0.0000 C   0  0  0  0  0  0  0  0  0  0  0  0
    2.4976   -1.4690    0.0000 C   0  0  0  0  0  0  0  0  0  0  0  0
    1.7474    1.4351    0.0000 C   0  0  0  0  0  0  0  0  0  0  0  0
   -3.2333   -1.5417    0.0000 N   0  0  0  0  0  0  0  0  0  0  0  0
    1.7764   -0.2299    0.0000 O   0  0  0  0  0  0  0  0  0  0  0  0
    0.3243    1.4061    0.0000 O   0  0  0  0  0  0  0  0  0  0  0  0
   -0.3920    0.1572    0.0000 C   0  0  0  0  0  0  0  0  0  0  0  0
   -1.1036   -0.2589    0.0000 C   0  0  0  0  0  0  0  0  0  0  0  0
   -3.9546   -1.1398    0.0000 C   0  0  0  0  0  0  0  0  0  0  0  0
   -2.5218   -1.1205    0.0000 C   0  0  0  0  0  0  0  0  0  0  0  0
   -1.7957   -1.5126    0.0000 C   0  0  0  0  0  0  0  0  0  0  0  0
    3.2091   -1.0431    0.0000 C   0  0  0  0  0  0  0  0  0  0  0  0
    2.4831    1.0285    0.0000 C   0  0  0  0  0  0  0  0  0  0  0  0
    1.7425    2.2483    0.0000 C   0  0  0  0  0  0  0  0  0  0  0  0
    2.5121   -2.2968    0.0000 C   0  0  0  0  0  0  0  0  0  0  0  0
    2.4444    2.6839    0.0000 C   0  0  0  0  0  0  0  0  0  0  0  0
    3.2333   -2.6888    0.0000 C   0  0  0  0  0  0  0  0  0  0  0  0
    3.9207   -1.4448    0.0000 C   0  0  0  0  0  0  0  0  0  0  0  0
    3.1850    1.4497    0.0000 C   0  0  0  0  0  0  0  0  0  0  0  0
    3.1801    2.2629    0.0000 C   0  0  0  0  0  0  0  0  0  0  0  0
    3.9498   -2.2629    0.0000 C   0  0  0  0  0  0  0  0  0  0  0  0
   -1.7957   -2.3403    0.0000 O   0  0  0  0  0  0  0  0  0  0  0  0
   -4.3709   -0.4236    0.0000 C   0  0  0  0  0  0  0  0  0  0  0  0
   -4.6613   -1.5610    0.0000 C   0  0  0  0  0  0  0  0  0  0  0  0
   -3.5528   -0.4236    0.0000 C   0  0  0  0  0  0  0  0  0  0  0  0
    4.6613   -2.6791    0.0000 C   0  0  0  0  0  0  0  0  0  0  0  0
    3.8820    2.6888    0.0000 C   0  0  0  0  0  0  0  0  0  0  0  0
  2  5  1  0  0  0  0
  3  4  1  0  0  0  0
  4  1  1  0  0  0  0
  5  6  1  0  0  0  0
  6  3  2  0  0  0  0
  7  3  1  0  0  0  0
  8  7  2  0  0  0  0
  9  1  1  0  0  0  0
 10  2  1  0  0  0  0
 11 17  1  0  0  0  0
 12  1  2  0  0  0  0
 13  2  2  0  0  0  0
 14  6  1  0  0  0  0
 15  8  1  0  0  0  0
 16 11  1  0  0  0  0
 17 18  1  0  0  0  0
 18  8  1  0  0  0  0
 19  9  2  0  0  0  0
 20 10  2  0  0  0  0
 21 10  1  0  0  0  0
 22  9  1  0  0  0  0
 23 21  2  0  0  0  0
 24 22  2  0  0  0  0
 25 19  1  0  0  0  0
 26 20  1  0  0  0  0
 27 23  1  0  0  0  0
 28 25  2  0  0  0  0
 29 18  1  0  0  0  0
 30 16  1  0  0  0  0
 31 16  1  0  0  0  0
 32 16  1  0  0  0  0
 33 28  1  0  0  0  0
 34 27  1  0  0  0  0
 24 28  1  0  0  0  0
 14 15  2  0  0  0  0
 26 27  2  0  0  0  0
M  END
> <DATABASE_ID>
DB00901

> <DATABASE_NAME>
drugbank

> <SMILES>
CC1=CC=C(C=C1)C(=O)OC1=C(OC(=O)C2=CC=C(C)C=C2)C=C(C=C1)C(O)CNC(C)(C)C

> <INCHI_IDENTIFIER>
InChI=1S/C28H31NO5/c1-18-6-10-20(11-7-18)26(31)33-24-15-14-22(23(30)17-29-28(3,4)5)16-25(24)34-27(32)21-12-8-19(2)9-13-21/h6-16,23,29-30H,17H2,1-5H3

> <INCHI_KEY>
FZGVEKPRDOIXJY-UHFFFAOYSA-N

> <FORMULA>
C28H31NO5

> <MOLECULAR_WEIGHT>
461.5494

> <EXACT_MASS>
461.220223107

> <JCHEM_ACCEPTOR_COUNT>
4

> <JCHEM_ATOM_COUNT>
65

> <JCHEM_AVERAGE_POLARIZABILITY>
52.0700463427588

> <JCHEM_BIOAVAILABILITY>
1

> <JCHEM_DONOR_COUNT>
2

> <JCHEM_FORMAL_CHARGE>
0

> <JCHEM_GHOSE_FILTER>
0

> <JCHEM_IUPAC>
5-[2-(tert-butylamino)-1-hydroxyethyl]-2-(4-methylbenzoyloxy)phenyl 4-methylbenzoate

> <ALOGPS_LOGP>
4.69

> <JCHEM_LOGP>
6.304932955333332

> <ALOGPS_LOGS>
-5.98

> <JCHEM_MDDR_LIKE_RULE>
1

> <JCHEM_NUMBER_OF_RINGS>
3

> <JCHEM_PHYSIOLOGICAL_CHARGE>
1

> <JCHEM_PKA_STRONGEST_ACIDIC>
13.996353628469908

> <JCHEM_PKA_STRONGEST_BASIC>
9.58701074563407

> <JCHEM_POLAR_SURFACE_AREA>
84.86

> <JCHEM_REFRACTIVITY>
132.76230000000004

> <JCHEM_ROTATABLE_BOND_COUNT>
10

> <JCHEM_RULE_OF_FIVE>
0

> <ALOGPS_SOLUBILITY>
4.80e-04 g/l

> <JCHEM_TRADITIONAL_IUPAC>
5-[2-(tert-butylamino)-1-hydroxyethyl]-2-(4-methylbenzoyloxy)phenyl 4-methylbenzoate

> <JCHEM_VEBER_RULE>
0

> <DRUGBANK_ID>
DB00901

> <SECONDARY_ACCESSION_NUMBERS>
APRD00827

> <DRUG_GROUPS>
withdrawn

> <GENERIC_NAME>
Bitolterol

> <SYNONYMS>
4-(2-(tert-butylamino)-1-hydroxyethyl)-o-phenylene di-p-toluate; 4-[2-(tert-butylamino)-1-hydroxyethyl]-o-phenylene di-p-toluate; bis(4-methylbenzoic acid) 4-[2-(tert-butylamino)-1-hydroxyethyl]-1,2-phenylene ester; Bitolterol; Bitoltérol; Bitolterolum

> <INTERNATIONAL_BRANDS>
Tornalate

> <SALTS>
Bitolterol mesylate

$$$$

  Mrv1909 11181918012D          

 15 15  0  0  0  0            999 V2000
   -1.7535   -0.4125    0.0000 C   0  0  0  0  0  0  0  0  0  0  0  0
   -1.0521   -0.8251    0.0000 C   0  0  0  0  0  0  0  0  0  0  0  0
   -1.7535    0.4125    0.0000 C   0  0  0  0  0  0  0  0  0  0  0  0
   -2.4549   -0.8251    0.0000 C   0  0  0  0  0  0  0  0  0  0  0  0
   -0.3094   -0.4125    0.0000 C   0  0  0  0  0  0  0  0  0  0  0  0
   -2.4549    0.8251    0.0000 C   0  0  0  0  0  0  0  0  0  0  0  0
   -3.1975   -0.4125    0.0000 C   0  0  0  0  0  0  0  0  0  0  0  0
    0.3507   -0.8251    0.0000 N   0  0  0  0  0  0  0  0  0  0  0  0
   -3.1975    0.4125    0.0000 C   0  0  0  0  0  0  0  0  0  0  0  0
    1.0520   -0.4125    0.0000 C   0  0  0  0  0  0  0  0  0  0  0  0
    1.7947   -0.8251    0.0000 N   0  0  0  0  0  0  0  0  0  0  0  0
    1.0520    0.4125    0.0000 N   0  0  0  0  0  0  0  0  0  0  0  0
    2.4960   -0.4125    0.0000 C   0  0  0  0  0  0  0  0  0  0  0  0
    3.1975   -0.8251    0.0000 N   0  0  0  0  0  0  0  0  0  0  0  0
    2.4960    0.4125    0.0000 N   0  0  0  0  0  0  0  0  0  0  0  0
  1  2  1  0  0  0  0
  1  3  2  0  0  0  0
  1  4  1  0  0  0  0
  2  5  1  0  0  0  0
  3  6  1  0  0  0  0
  4  7  2  0  0  0  0
  5  8  1  0  0  0  0
  6  9  2  0  0  0  0
  7  9  1  0  0  0  0
  8 10  1  0  0  0  0
 10 11  1  0  0  0  0
 10 12  2  0  0  0  0
 11 13  1  0  0  0  0
 13 14  1  0  0  0  0
 13 15  2  0  0  0  0
M  END
> <DATABASE_ID>
DB00914

> <DATABASE_NAME>
drugbank

> <SMILES>
NC(=N)NC(=N)NCCC1=CC=CC=C1

> <INCHI_IDENTIFIER>
InChI=1S/C10H15N5/c11-9(12)15-10(13)14-7-6-8-4-2-1-3-5-8/h1-5H,6-7H2,(H6,11,12,13,14,15)

> <INCHI_KEY>
ICFJFFQQTFMIBG-UHFFFAOYSA-N

> <FORMULA>
C10H15N5

> <MOLECULAR_WEIGHT>
205.2596

> <EXACT_MASS>
205.132745505

> <JCHEM_ACCEPTOR_COUNT>
5

> <JCHEM_ATOM_COUNT>
30

> <JCHEM_AVERAGE_POLARIZABILITY>
22.143145874481135

> <JCHEM_BIOAVAILABILITY>
1

> <JCHEM_DONOR_COUNT>
5

> <JCHEM_FORMAL_CHARGE>
0

> <JCHEM_GHOSE_FILTER>
1

> <JCHEM_IUPAC>
1-carbamimidamido-N-(2-phenylethyl)methanimidamide

> <ALOGPS_LOGP>
-0.72

> <JCHEM_LOGP>
0.8327289916666667

> <ALOGPS_LOGS>
-2.95

> <JCHEM_MDDR_LIKE_RULE>
0

> <JCHEM_NUMBER_OF_RINGS>
1

> <JCHEM_PHYSIOLOGICAL_CHARGE>
2

> <JCHEM_PKA_STRONGEST_ACIDIC>
19.183435879887664

> <JCHEM_PKA_STRONGEST_BASIC>
11.973029263601687

> <JCHEM_POLAR_SURFACE_AREA>
97.78

> <JCHEM_REFRACTIVITY>
80.7156

> <JCHEM_ROTATABLE_BOND_COUNT>
3

> <JCHEM_RULE_OF_FIVE>
1

> <ALOGPS_SOLUBILITY>
2.32e-01 g/l

> <JCHEM_TRADITIONAL_IUPAC>
demeclocycline hydrochloride

> <JCHEM_VEBER_RULE>
0

> <DRUGBANK_ID>
DB00914

> <SECONDARY_ACCESSION_NUMBERS>
APRD00511

> <DRUG_GROUPS>
approved; investigational; withdrawn

> <GENERIC_NAME>
Phenformin

> <SYNONYMS>
Fenformin; Fenformina; Phenformin; Phenformine; Phenforminum; β-Phenethybiguanide

> <INTERNATIONAL_BRANDS>
DBI

> <SALTS>
Phenformin hydrochloride

$$$$
926
  Mrv0541 02231215062D          

 26 26  0  0  0  0            999 V2000
    3.0791   -4.7439    0.0000 O   0  0  0  0  0  0  0  0  0  0  0  0
    6.6515    3.9188    0.0000 O   0  0  0  0  0  0  0  0  0  0  0  0
    5.2224    3.9188    0.0000 O   0  0  0  0  0  0  0  0  0  0  0  0
    2.3645   -2.6813    0.0000 C   0  0  0  0  0  0  0  0  0  0  0  0
    3.0791   -2.2688    0.0000 C   0  0  0  0  0  0  0  0  0  0  0  0
    2.3645   -3.5063    0.0000 C   0  0  0  0  0  0  0  0  0  0  0  0
    3.7935   -2.6813    0.0000 C   0  0  0  0  0  0  0  0  0  0  0  0
    3.0791   -3.9188    0.0000 C   0  0  0  0  0  0  0  0  0  0  0  0
    3.7935   -3.5063    0.0000 C   0  0  0  0  0  0  0  0  0  0  0  0
    1.6500   -2.2688    0.0000 C   0  0  0  0  0  0  0  0  0  0  0  0
    3.0791   -1.4438    0.0000 C   0  0  0  0  0  0  0  0  0  0  0  0
    1.6500   -3.9188    0.0000 C   0  0  0  0  0  0  0  0  0  0  0  0
    4.5080   -2.2688    0.0000 C   0  0  0  0  0  0  0  0  0  0  0  0
    3.7935   -1.0313    0.0000 C   0  0  0  0  0  0  0  0  0  0  0  0
    3.7935   -0.2063    0.0000 C   0  0  0  0  0  0  0  0  0  0  0  0
    3.7935   -5.1564    0.0000 C   0  0  0  0  0  0  0  0  0  0  0  0
    3.0791    0.2063    0.0000 C   0  0  0  0  0  0  0  0  0  0  0  0
    4.5080    0.2063    0.0000 C   0  0  0  0  0  0  0  0  0  0  0  0
    4.5080    1.0313    0.0000 C   0  0  0  0  0  0  0  0  0  0  0  0
    5.2224    1.4438    0.0000 C   0  0  0  0  0  0  0  0  0  0  0  0
    5.2224    2.2688    0.0000 C   0  0  0  0  0  0  0  0  0  0  0  0
    4.5080    2.6813    0.0000 C   0  0  0  0  0  0  0  0  0  0  0  0
    5.9370    2.6813    0.0000 C   0  0  0  0  0  0  0  0  0  0  0  0
    5.9370    3.5063    0.0000 C   0  0  0  0  0  0  0  0  0  0  0  0
    6.6515    4.7439    0.0000 C   0  0  0  0  0  0  0  0  0  0  0  0
    7.3659    5.1564    0.0000 C   0  0  0  0  0  0  0  0  0  0  0  0
  1  8  1  0  0  0  0
  1 16  1  0  0  0  0
  2 24  1  0  0  0  0
  2 25  1  0  0  0  0
  3 24  2  0  0  0  0
  4  5  2  0  0  0  0
  4  6  1  0  0  0  0
  4 10  1  0  0  0  0
  5  7  1  0  0  0  0
  5 11  1  0  0  0  0
  6  8  2  0  0  0  0
  6 12  1  0  0  0  0
  7  9  2  0  0  0  0
  7 13  1  0  0  0  0
  8  9  1  0  0  0  0
 11 14  2  3  0  0  0
 14 15  1  0  0  0  0
 15 17  1  0  0  0  0
 15 18  2  3  0  0  0
 18 19  1  0  0  0  0
 19 20  2  3  0  0  0
 20 21  1  0  0  0  0
 21 22  1  0  0  0  0
 21 23  2  3  0  0  0
 23 24  1  0  0  0  0
 25 26  1  0  0  0  0
M  END
> <DATABASE_ID>
DB00926

> <DATABASE_NAME>
drugbank

> <SMILES>
CCOC(=O)C=C(C)C=CC=C(C)C=CC1=C(C)C(C)=C(OC)C=C1C

> <INCHI_IDENTIFIER>
InChI=1S/C23H30O3/c1-8-26-23(24)14-17(3)11-9-10-16(2)12-13-21-18(4)15-22(25-7)20(6)19(21)5/h9-15H,8H2,1-7H3

> <INCHI_KEY>
HQMNCQVAMBCHCO-UHFFFAOYSA-N

> <FORMULA>
C23H30O3

> <MOLECULAR_WEIGHT>
354.4825

> <EXACT_MASS>
354.219494826

> <JCHEM_ACCEPTOR_COUNT>
2

> <JCHEM_AVERAGE_POLARIZABILITY>
42.977397010032746

> <JCHEM_BIOAVAILABILITY>
1

> <JCHEM_DONOR_COUNT>
0

> <JCHEM_FORMAL_CHARGE>
0

> <JCHEM_GHOSE_FILTER>
0

> <JCHEM_IUPAC>
ethyl 9-(4-methoxy-2,3,6-trimethylphenyl)-3,7-dimethylnona-2,4,6,8-tetraenoate

> <ALOGPS_LOGP>
6.32

> <JCHEM_LOGP>
6.323084069666667

> <ALOGPS_LOGS>
-5.94

> <JCHEM_MDDR_LIKE_RULE>
0

> <JCHEM_NUMBER_OF_RINGS>
1

> <JCHEM_PHYSIOLOGICAL_CHARGE>
0

> <JCHEM_PKA_STRONGEST_BASIC>
-4.815754728353506

> <JCHEM_POLAR_SURFACE_AREA>
35.53

> <JCHEM_REFRACTIVITY>
113.6842

> <JCHEM_ROTATABLE_BOND_COUNT>
8

> <JCHEM_RULE_OF_FIVE>
0

> <ALOGPS_SOLUBILITY>
4.05e-04 g/l

> <JCHEM_TRADITIONAL_IUPAC>
etretinate

> <JCHEM_VEBER_RULE>
1

> <DRUGBANK_ID>
DB00926

> <SECONDARY_ACCESSION_NUMBERS>
APRD00966

> <DRUG_GROUPS>
withdrawn

> <GENERIC_NAME>
Etretinate

> <SYNONYMS>
Etretinate; etretinato

> <INTERNATIONAL_BRANDS>
Tigason

$$$$
969
  Mrv0541 02231215082D          

 22 25  0  0  0  0            999 V2000
    4.2709   -1.6687    0.0000 O   0  0  0  0  0  0  0  0  0  0  0  0
    5.3327   -0.7530    0.0000 N   0  0  0  0  0  0  0  0  0  0  0  0
    3.5859    0.9221    0.0000 N   0  0  0  0  0  0  0  0  0  0  0  0
    7.2223   -1.7142    0.0000 N   0  0  0  0  0  0  0  0  0  0  0  0
    7.7481   -0.5454    0.0000 N   0  0  0  0  0  0  0  0  0  0  0  0
    4.2266    0.4565    0.0000 C   0  0  0  0  0  0  0  0  0  0  0  0
    5.0309    0.6405    0.0000 C   0  0  0  0  0  0  0  0  0  0  0  0
    3.9819   -0.2967    0.0000 C   0  0  0  0  0  0  0  0  0  0  0  0
    5.5876    0.0317    0.0000 C   0  0  0  0  0  0  0  0  0  0  0  0
    3.1899   -0.2967    0.0000 C   0  0  0  0  0  0  0  0  0  0  0  0
    2.9450    0.4565    0.0000 C   0  0  0  0  0  0  0  0  0  0  0  0
    4.5243   -0.9183    0.0000 C   0  0  0  0  0  0  0  0  0  0  0  0
    5.8604   -1.3436    0.0000 C   0  0  0  0  0  0  0  0  0  0  0  0
    3.5859    1.7142    0.0000 C   0  0  0  0  0  0  0  0  0  0  0  0
    2.6473   -0.9183    0.0000 C   0  0  0  0  0  0  0  0  0  0  0  0
    2.1408    0.6405    0.0000 C   0  0  0  0  0  0  0  0  0  0  0  0
    6.6357   -1.1819    0.0000 C   0  0  0  0  0  0  0  0  0  0  0  0
    1.8391   -0.7530    0.0000 C   0  0  0  0  0  0  0  0  0  0  0  0
    1.5841    0.0317    0.0000 C   0  0  0  0  0  0  0  0  0  0  0  0
    6.9607   -0.4596    0.0000 C   0  0  0  0  0  0  0  0  0  0  0  0
    6.5673    0.2279    0.0000 C   0  0  0  0  0  0  0  0  0  0  0  0
    7.9098   -1.3208    0.0000 C   0  0  0  0  0  0  0  0  0  0  0  0
  1 12  2  0  0  0  0
  2  9  1  0  0  0  0
  2 12  1  0  0  0  0
  2 13  1  0  0  0  0
  3  6  1  0  0  0  0
  3 11  1  0  0  0  0
  3 14  1  0  0  0  0
  4 17  1  0  0  0  0
  4 22  2  0  0  0  0
  5 20  1  0  0  0  0
  5 22  1  0  0  0  0
  6  7  1  0  0  0  0
  6  8  2  0  0  0  0
  7  9  1  0  0  0  0
  8 10  1  0  0  0  0
  8 12  1  0  0  0  0
 10 11  1  0  0  0  0
 10 15  2  0  0  0  0
 11 16  2  0  0  0  0
 13 17  1  0  0  0  0
 15 18  1  0  0  0  0
 16 19  1  0  0  0  0
 17 20  2  0  0  0  0
 18 19  2  0  0  0  0
 20 21  1  0  0  0  0
M  END
> <DATABASE_ID>
DB00969

> <DATABASE_NAME>
drugbank

> <SMILES>
CN1C2=C(C3=CC=CC=C13)C(=O)N(CC1=C(C)NC=N1)CC2

> <INCHI_IDENTIFIER>
InChI=1S/C17H18N4O/c1-11-13(19-10-18-11)9-21-8-7-15-16(17(21)22)12-5-3-4-6-14(12)20(15)2/h3-6,10H,7-9H2,1-2H3,(H,18,19)

> <INCHI_KEY>
JSWZEAMFRNKZNL-UHFFFAOYSA-N

> <FORMULA>
C17H18N4O

> <MOLECULAR_WEIGHT>
294.351

> <EXACT_MASS>
294.148061218

> <JCHEM_ACCEPTOR_COUNT>
2

> <JCHEM_AVERAGE_POLARIZABILITY>
32.51709086196463

> <JCHEM_BIOAVAILABILITY>
1

> <JCHEM_DONOR_COUNT>
1

> <JCHEM_FORMAL_CHARGE>
0

> <JCHEM_GHOSE_FILTER>
1

> <JCHEM_IUPAC>
5-methyl-2-[(5-methyl-1H-imidazol-4-yl)methyl]-1H,2H,3H,4H,5H-pyrido[4,3-b]indol-1-one

> <ALOGPS_LOGP>
1.85

> <JCHEM_LOGP>
1.2119007720000001

> <ALOGPS_LOGS>
-2.83

> <JCHEM_MDDR_LIKE_RULE>
0

> <JCHEM_NUMBER_OF_RINGS>
4

> <JCHEM_PHYSIOLOGICAL_CHARGE>
0

> <JCHEM_PKA_STRONGEST_ACIDIC>
13.315838762552861

> <JCHEM_PKA_STRONGEST_BASIC>
6.809476550701925

> <JCHEM_POLAR_SURFACE_AREA>
53.92

> <JCHEM_REFRACTIVITY>
86.40540000000001

> <JCHEM_ROTATABLE_BOND_COUNT>
2

> <JCHEM_RULE_OF_FIVE>
1

> <ALOGPS_SOLUBILITY>
4.38e-01 g/l

> <JCHEM_TRADITIONAL_IUPAC>
alosetron

> <JCHEM_VEBER_RULE>
0

> <DRUGBANK_ID>
DB00969

> <SECONDARY_ACCESSION_NUMBERS>
APRD00580

> <DRUG_GROUPS>
approved; withdrawn

> <GENERIC_NAME>
Alosetron

> <SYNONYMS>
2,3,4,5-Tetrahydro-5-methyl-2-((5-methyl-1H-imidazol-4-yl)methyl)-1H-pyrido(4,3-b)indol-1-one; Alosetron

> <PRODUCTS>
Alosetron; Alosetron Hydrochloride; Lotronex

> <SALTS>
Alosetron hydrochloride

$$$$
1025
  Mrv0541 02231215112D          

 22 24  0  0  0  0            999 V2000
    5.2784   -1.1104    0.0000 O   0  0  0  0  0  0  0  0  0  0  0  0
    5.2784    1.3645    0.0000 O   0  0  0  0  0  0  0  0  0  0  0  0
    8.1875    1.3844    0.0000 O   0  0  0  0  0  0  0  0  0  0  0  0
    8.9067    0.1497    0.0000 O   0  0  0  0  0  0  0  0  0  0  0  0
    6.7303   -1.1391    0.0000 N   0  0  0  0  0  0  0  0  0  0  0  0
    8.1907   -1.1304    0.0000 N   0  0  0  0  0  0  0  0  0  0  0  0
    2.3660    0.5594    0.0000 C   0  0  0  0  0  0  0  0  0  0  0  0
    3.0789    0.1442    0.0000 C   0  0  0  0  0  0  0  0  0  0  0  0
    4.5639    0.1270    0.0000 C   0  0  0  0  0  0  0  0  0  0  0  0
    3.8264    0.5681    0.0000 C   0  0  0  0  0  0  0  0  0  0  0  0
    4.5639   -0.6979    0.0000 C   0  0  0  0  0  0  0  0  0  0  0  0
    3.0789   -0.7151    0.0000 C   0  0  0  0  0  0  0  0  0  0  0  0
    5.9928    0.1270    0.0000 C   0  0  0  0  0  0  0  0  0  0  0  0
    5.2784    0.5395    0.0000 C   0  0  0  0  0  0  0  0  0  0  0  0
    1.6500    0.1497    0.0000 C   0  0  0  0  0  0  0  0  0  0  0  0
    2.3692    1.3844    0.0000 C   0  0  0  0  0  0  0  0  0  0  0  0
    3.8264   -1.1391    0.0000 C   0  0  0  0  0  0  0  0  0  0  0  0
    5.9928   -0.6979    0.0000 C   0  0  0  0  0  0  0  0  0  0  0  0
    6.7303    0.5681    0.0000 C   0  0  0  0  0  0  0  0  0  0  0  0
    7.4778    0.1442    0.0000 C   0  0  0  0  0  0  0  0  0  0  0  0
    7.4778   -0.7151    0.0000 C   0  0  0  0  0  0  0  0  0  0  0  0
    8.1907    0.5594    0.0000 C   0  0  0  0  0  0  0  0  0  0  0  0
  1 11  1  0  0  0  0
  1 18  1  0  0  0  0
  2 14  2  0  0  0  0
  3 22  1  0  0  0  0
  4 22  2  0  0  0  0
  5 18  2  0  0  0  0
  5 21  1  0  0  0  0
  6 21  1  0  0  0  0
  7  8  1  0  0  0  0
  7 15  1  0  0  0  0
  7 16  1  0  0  0  0
  8 10  2  0  0  0  0
  8 12  1  0  0  0  0
  9 10  1  0  0  0  0
  9 11  2  0  0  0  0
  9 14  1  0  0  0  0
 11 17  1  0  0  0  0
 12 17  2  0  0  0  0
 13 14  1  0  0  0  0
 13 18  1  0  0  0  0
 13 19  2  0  0  0  0
 19 20  1  0  0  0  0
 20 21  2  0  0  0  0
 20 22  1  0  0  0  0
M  END
> <DATABASE_ID>
DB01025

> <DATABASE_NAME>
drugbank

> <SMILES>
CC(C)C1=CC2=C(OC3=NC(N)=C(C=C3C2=O)C(O)=O)C=C1

> <INCHI_IDENTIFIER>
InChI=1S/C16H14N2O4/c1-7(2)8-3-4-12-9(5-8)13(19)10-6-11(16(20)21)14(17)18-15(10)22-12/h3-7H,1-2H3,(H2,17,18)(H,20,21)

> <INCHI_KEY>
SGRYPYWGNKJSDL-UHFFFAOYSA-N

> <FORMULA>
C16H14N2O4

> <MOLECULAR_WEIGHT>
298.2934

> <EXACT_MASS>
298.095356946

> <JCHEM_ACCEPTOR_COUNT>
5

> <JCHEM_AVERAGE_POLARIZABILITY>
30.82499978886283

> <JCHEM_BIOAVAILABILITY>
1

> <JCHEM_DONOR_COUNT>
2

> <JCHEM_FORMAL_CHARGE>
0

> <JCHEM_GHOSE_FILTER>
1

> <JCHEM_IUPAC>
2-amino-5-oxo-7-(propan-2-yl)-5H-chromeno[2,3-b]pyridine-3-carboxylic acid

> <ALOGPS_LOGP>
2.76

> <JCHEM_LOGP>
3.6545489580000003

> <ALOGPS_LOGS>
-3.31

> <JCHEM_MDDR_LIKE_RULE>
0

> <JCHEM_NUMBER_OF_RINGS>
3

> <JCHEM_PHYSIOLOGICAL_CHARGE>
-1

> <JCHEM_PKA_STRONGEST_ACIDIC>
4.303939649642112

> <JCHEM_PKA_STRONGEST_BASIC>
0.874259879101479

> <JCHEM_POLAR_SURFACE_AREA>
102.51

> <JCHEM_REFRACTIVITY>
81.4338

> <JCHEM_ROTATABLE_BOND_COUNT>
2

> <JCHEM_RULE_OF_FIVE>
1

> <ALOGPS_SOLUBILITY>
1.46e-01 g/l

> <JCHEM_TRADITIONAL_IUPAC>
aphthasol

> <JCHEM_VEBER_RULE>
0

> <DRUGBANK_ID>
DB01025

> <SECONDARY_ACCESSION_NUMBERS>
APRD00795

> <DRUG_GROUPS>
approved; investigational; withdrawn

> <GENERIC_NAME>
Amlexanox

> <SYNONYMS>
2-Amino-7-isopropyl-5-oxo-5H-(1)benzopyrano(2,3-b)pyridine-3-carboxylic acid; Amlexanox; Amlexanoxo; Amlexanoxum; Amoxanox

> <PRODUCTS>
Apthera

> <INTERNATIONAL_BRANDS>
Aphthasol; Elics; OraDisc A; Solfa

$$$$
1031
  Mrv0541 02231215112D          

 12 12  0  0  0  0            999 V2000
    3.1433    0.6035    0.0000 O   0  0  0  0  0  0  0  0  0  0  0  0
    4.3808   -0.1110    0.0000 O   0  0  0  0  0  0  0  0  0  0  0  0
    4.3808    1.3180    0.0000 N   0  0  0  0  0  0  0  0  0  0  0  0
    2.7308   -0.1110    0.0000 C   0  0  0  0  0  0  0  0  0  0  0  0
    2.0163   -0.5235    0.0000 C   0  0  0  0  0  0  0  0  0  0  0  0
    3.4453   -0.5235    0.0000 C   0  0  0  0  0  0  0  0  0  0  0  0
    2.0163   -1.3485    0.0000 C   0  0  0  0  0  0  0  0  0  0  0  0
    3.4453   -1.3485    0.0000 C   0  0  0  0  0  0  0  0  0  0  0  0
    2.7308   -1.7610    0.0000 C   0  0  0  0  0  0  0  0  0  0  0  0
    2.3183    0.6035    0.0000 C   0  0  0  0  0  0  0  0  0  0  0  0
    3.9683    0.6035    0.0000 C   0  0  0  0  0  0  0  0  0  0  0  0
    1.9058    1.3180    0.0000 C   0  0  0  0  0  0  0  0  0  0  0  0
  1  4  1  0  0  0  0
  1 11  1  0  0  0  0
  2 11  2  0  0  0  0
  3 11  1  0  0  0  0
  4  5  1  0  0  0  0
  4  6  1  0  0  0  0
  4 10  1  0  0  0  0
  5  7  1  0  0  0  0
  6  8  1  0  0  0  0
  7  9  1  0  0  0  0
  8  9  1  0  0  0  0
 10 12  3  0  0  0  0
M  END
> <DATABASE_ID>
DB01031

> <DATABASE_NAME>
drugbank

> <SMILES>
NC(=O)OC1(CCCCC1)C#C

> <INCHI_IDENTIFIER>
InChI=1S/C9H13NO2/c1-2-9(12-8(10)11)6-4-3-5-7-9/h1H,3-7H2,(H2,10,11)

> <INCHI_KEY>
GXRZIMHKGDIBEW-UHFFFAOYSA-N

> <FORMULA>
C9H13NO2

> <MOLECULAR_WEIGHT>
167.205

> <EXACT_MASS>
167.094628665

> <JCHEM_ACCEPTOR_COUNT>
1

> <JCHEM_AVERAGE_POLARIZABILITY>
17.726913510740403

> <JCHEM_BIOAVAILABILITY>
1

> <JCHEM_DONOR_COUNT>
1

> <JCHEM_FORMAL_CHARGE>
0

> <JCHEM_GHOSE_FILTER>
1

> <JCHEM_IUPAC>
1-ethynylcyclohexyl carbamate

> <ALOGPS_LOGP>
1.09

> <JCHEM_LOGP>
1.5401250993333333

> <ALOGPS_LOGS>
-3.20

> <JCHEM_MDDR_LIKE_RULE>
0

> <JCHEM_NUMBER_OF_RINGS>
1

> <JCHEM_PHYSIOLOGICAL_CHARGE>
0

> <JCHEM_PKA_STRONGEST_ACIDIC>
15.371112584590886

> <JCHEM_POLAR_SURFACE_AREA>
52.32

> <JCHEM_REFRACTIVITY>
44.573499999999996

> <JCHEM_ROTATABLE_BOND_COUNT>
2

> <JCHEM_RULE_OF_FIVE>
1

> <ALOGPS_SOLUBILITY>
1.06e-01 g/l

> <JCHEM_TRADITIONAL_IUPAC>
ethinamate

> <JCHEM_VEBER_RULE>
0

> <DRUGBANK_ID>
DB01031

> <SECONDARY_ACCESSION_NUMBERS>
APRD00959

> <DRUG_GROUPS>
approved; illicit; withdrawn

> <GENERIC_NAME>
Ethinamate

> <SYNONYMS>
1-ethynylcyclohexanol carbamate; Aethinyl-cyclohexyl-carbamat; Ethinamate; Ethinamatum; Etinamato

> <INTERNATIONAL_BRANDS>
Valamin; Valmid

$$$$

  Mrv1652307091705552D          

 30 33  0  0  0  0            999 V2000
   -1.4039    1.0107    0.0000 N   0  0  0  0  0  0  0  0  0  0  0  0
   -0.7043    1.4254    0.0000 C   0  0  0  0  0  0  0  0  0  0  0  0
   -1.4039    2.6702    0.0000 S   0  0  0  0  0  0  0  0  0  0  0  0
   -0.7043    2.2504    0.0000 C   0  0  0  0  0  0  0  0  0  0  0  0
   -2.1178    1.4254    0.0000 C   0  0  0  0  0  0  0  0  0  0  0  0
   -2.1178    2.2504    0.0000 C   0  0  0  0  0  0  0  0  0  0  0  0
   -0.0048    1.0107    0.0000 C   0  0  0  0  0  0  0  0  0  0  0  0
    0.7187    1.4254    0.0000 C   0  0  0  0  0  0  0  0  0  0  0  0
   -0.0048   -1.4352    0.0000 N   0  0  0  0  0  0  0  0  0  0  0  0
    1.4135   -2.2505    0.0000 N   0  0  0  0  0  0  0  0  0  0  0  0
    1.4135    1.0107    0.0000 C   0  0  0  0  0  0  0  0  0  0  0  0
   -0.0048    2.6702    0.0000 C   0  0  0  0  0  0  0  0  0  0  0  0
    0.7187    2.2504    0.0000 C   0  0  0  0  0  0  0  0  0  0  0  0
    1.4135    0.1857    0.0000 O   0  0  0  0  0  0  0  0  0  0  0  0
   -1.4039    0.1857    0.0000 C   0  0  0  0  0  0  0  0  0  0  0  0
    1.4135   -1.4352    0.0000 C   0  0  0  0  0  0  0  0  0  0  0  0
   -0.0048   -2.2505    0.0000 C   0  0  0  0  0  0  0  0  0  0  0  0
    0.7187   -1.0203    0.0000 C   0  0  0  0  0  0  0  0  0  0  0  0
    0.7187   -2.6702    0.0000 C   0  0  0  0  0  0  0  0  0  0  0  0
   -0.7043   -0.2099    0.0000 C   0  0  0  0  0  0  0  0  0  0  0  0
   -0.7043   -1.0203    0.0000 C   0  0  0  0  0  0  0  0  0  0  0  0
   -2.8414    1.0107    0.0000 C   0  0  0  0  0  0  0  0  0  0  0  0
    2.1371   -2.6702    0.0000 C   0  0  0  0  0  0  0  0  0  0  0  0
   -2.8414    2.6702    0.0000 C   0  0  0  0  0  0  0  0  0  0  0  0
    3.5554   -2.6702    0.0000 O   0  0  0  0  0  0  0  0  0  0  0  0
    2.1371    1.4254    0.0000 C   0  0  0  0  0  0  0  0  0  0  0  0
    2.8463   -2.2505    0.0000 C   0  0  0  0  0  0  0  0  0  0  0  0
    2.8463    1.0107    0.0000 C   0  0  0  0  0  0  0  0  0  0  0  0
   -3.5554    1.4254    0.0000 C   0  0  0  0  0  0  0  0  0  0  0  0
   -3.5554    2.2504    0.0000 C   0  0  0  0  0  0  0  0  0  0  0  0
  2  1  1  0  0  0  0
  3  6  1  0  0  0  0
  4  2  1  0  0  0  0
  5  1  1  0  0  0  0
  6  5  2  0  0  0  0
  7  2  2  0  0  0  0
  8  7  1  0  0  0  0
  9 21  1  0  0  0  0
 10 19  1  0  0  0  0
 11  8  1  0  0  0  0
 12  4  2  0  0  0  0
 13  8  2  0  0  0  0
 14 11  2  0  0  0  0
 15  1  1  0  0  0  0
 16 18  1  0  0  0  0
 17  9  1  0  0  0  0
 18  9  1  0  0  0  0
 19 17  1  0  0  0  0
 20 15  1  0  0  0  0
 21 20  1  0  0  0  0
 22  5  1  0  0  0  0
 23 10  1  0  0  0  0
 24  6  1  0  0  0  0
 25 27  1  0  0  0  0
 26 11  1  0  0  0  0
 27 23  1  0  0  0  0
 28 26  1  0  0  0  0
 29 22  2  0  0  0  0
 30 24  2  0  0  0  0
  4  3  1  0  0  0  0
 29 30  1  0  0  0  0
 12 13  1  0  0  0  0
 16 10  1  0  0  0  0
M  END
> <DATABASE_ID>
DB01038

> <DATABASE_NAME>
drugbank

> <SMILES>
CCC(=O)C1=CC=C2SC3=C(C=CC=C3)N(CCCN3CCN(CCO)CC3)C2=C1

> <INCHI_IDENTIFIER>
InChI=1S/C24H31N3O2S/c1-2-22(29)19-8-9-24-21(18-19)27(20-6-3-4-7-23(20)30-24)11-5-10-25-12-14-26(15-13-25)16-17-28/h3-4,6-9,18,28H,2,5,10-17H2,1H3

> <INCHI_KEY>
XZSMZRXAEFNJCU-UHFFFAOYSA-N

> <FORMULA>
C24H31N3O2S

> <MOLECULAR_WEIGHT>
425.59

> <EXACT_MASS>
425.213698424

> <JCHEM_ACCEPTOR_COUNT>
5

> <JCHEM_ATOM_COUNT>
61

> <JCHEM_AVERAGE_POLARIZABILITY>
49.224111231309145

> <JCHEM_BIOAVAILABILITY>
1

> <JCHEM_DONOR_COUNT>
1

> <JCHEM_FORMAL_CHARGE>
0

> <JCHEM_GHOSE_FILTER>
1

> <JCHEM_IUPAC>
1-(10-{3-[4-(2-hydroxyethyl)piperazin-1-yl]propyl}-10H-phenothiazin-2-yl)propan-1-one

> <ALOGPS_LOGP>
3.26

> <JCHEM_LOGP>
3.3461564986666668

> <ALOGPS_LOGS>
-4.06

> <JCHEM_MDDR_LIKE_RULE>
1

> <JCHEM_NUMBER_OF_RINGS>
4

> <JCHEM_PHYSIOLOGICAL_CHARGE>
1

> <JCHEM_PKA>
16.680092498664305

> <JCHEM_PKA_STRONGEST_ACIDIC>
15.556012646634006

> <JCHEM_PKA_STRONGEST_BASIC>
7.666166146203319

> <JCHEM_POLAR_SURFACE_AREA>
47.019999999999996

> <JCHEM_REFRACTIVITY>
126.3236

> <JCHEM_ROTATABLE_BOND_COUNT>
8

> <JCHEM_RULE_OF_FIVE>
1

> <ALOGPS_SOLUBILITY>
3.66e-02 g/l

> <JCHEM_TRADITIONAL_IUPAC>
carphenazine

> <JCHEM_VEBER_RULE>
0

> <DRUGBANK_ID>
DB01038

> <SECONDARY_ACCESSION_NUMBERS>
APRD00848

> <DRUG_GROUPS>
withdrawn

> <GENERIC_NAME>
Carphenazine

> <SYNONYMS>
Carfenazina; Carfénazine; Carfenazine; Carfenazinum; Carphenazine

> <INTERNATIONAL_BRANDS>
Proketazin; Proketazine

> <SALTS>
Carphenazine maleate

$$$$
1041
  Mrv0541 02231215122D          

 19 21  0  0  1  0            999 V2000
    5.1662   -1.4290    0.0000 O   0  0  0  0  0  0  0  0  0  0  0  0
    4.1159   -1.4482    0.0000 O   0  0  0  0  0  0  0  0  0  0  0  0
    4.1159    1.4482    0.0000 O   0  0  0  0  0  0  0  0  0  0  0  0
    7.6412    0.0000    0.0000 O   0  0  0  0  0  0  0  0  0  0  0  0
    4.3412    0.0000    0.0000 N   0  0  0  0  0  0  0  0  0  0  0  0
    6.4037   -0.7145    0.0000 N   0  0  0  0  0  0  0  0  0  0  0  0
    5.1662    0.0000    0.0000 C   0  0  0  0  0  0  0  0  0  0  0  0
    5.5787    0.7145    0.0000 C   0  0  0  0  0  0  0  0  0  0  0  0
    6.4037    0.7145    0.0000 C   0  0  0  0  0  0  0  0  0  0  0  0
    5.5787   -0.7145    0.0000 C   0  0  0  0  0  0  0  0  0  0  0  0
    3.8597   -0.6639    0.0000 C   0  0  0  0  0  0  0  0  0  0  0  0
    3.8597    0.6639    0.0000 C   0  0  0  0  0  0  0  0  0  0  0  0
    3.0791   -0.4125    0.0000 C   0  0  0  0  0  0  0  0  0  0  0  0
    3.0791    0.4125    0.0000 C   0  0  0  0  0  0  0  0  0  0  0  0
    6.8162    0.0000    0.0000 C   0  0  0  0  0  0  0  0  0  0  0  0
    2.3645   -0.8250    0.0000 C   0  0  0  0  0  0  0  0  0  0  0  0
    2.3645    0.8250    0.0000 C   0  0  0  0  0  0  0  0  0  0  0  0
    1.6500   -0.4125    0.0000 C   0  0  0  0  0  0  0  0  0  0  0  0
    1.6500    0.4125    0.0000 C   0  0  0  0  0  0  0  0  0  0  0  0
  1 10  2  0  0  0  0
  2 11  2  0  0  0  0
  3 12  2  0  0  0  0
  4 15  2  0  0  0  0
  5  7  1  0  0  0  0
  5 11  1  0  0  0  0
  5 12  1  0  0  0  0
  6 10  1  0  0  0  0
  6 15  1  0  0  0  0
  7  8  1  0  0  0  0
  7 10  1  0  0  0  0
  8  9  1  0  0  0  0
  9 15  1  0  0  0  0
 11 13  1  0  0  0  0
 12 14  1  0  0  0  0
 13 14  1  0  0  0  0
 13 16  2  0  0  0  0
 14 17  2  0  0  0  0
 16 18  1  0  0  0  0
 17 19  1  0  0  0  0
 18 19  2  0  0  0  0
M  END
> <DATABASE_ID>
DB01041

> <DATABASE_NAME>
drugbank

> <SMILES>
O=C1N(C2CCC(=O)NC2=O)C(=O)C2=CC=CC=C12

> <INCHI_IDENTIFIER>
InChI=1S/C13H10N2O4/c16-10-6-5-9(11(17)14-10)15-12(18)7-3-1-2-4-8(7)13(15)19/h1-4,9H,5-6H2,(H,14,16,17)

> <INCHI_KEY>
UEJJHQNACJXSKW-UHFFFAOYSA-N

> <FORMULA>
C13H10N2O4

> <MOLECULAR_WEIGHT>
258.2295

> <EXACT_MASS>
258.064056818

> <JCHEM_ACCEPTOR_COUNT>
4

> <JCHEM_AVERAGE_POLARIZABILITY>
24.42456996837572

> <JCHEM_BIOAVAILABILITY>
1

> <JCHEM_DONOR_COUNT>
1

> <JCHEM_FORMAL_CHARGE>
0

> <JCHEM_GHOSE_FILTER>
1

> <JCHEM_IUPAC>
2-(2,6-dioxopiperidin-3-yl)-2,3-dihydro-1H-isoindole-1,3-dione

> <ALOGPS_LOGP>
0.42

> <JCHEM_LOGP>
0.01570735600000027

> <ALOGPS_LOGS>
-2.00

> <JCHEM_MDDR_LIKE_RULE>
0

> <JCHEM_NUMBER_OF_RINGS>
3

> <JCHEM_PHYSIOLOGICAL_CHARGE>
0

> <JCHEM_PKA>
16.74270753163753

> <JCHEM_PKA_STRONGEST_ACIDIC>
11.593278965606643

> <JCHEM_PKA_STRONGEST_BASIC>
-6.448342644269868

> <JCHEM_POLAR_SURFACE_AREA>
83.55

> <JCHEM_REFRACTIVITY>
64.32480000000001

> <JCHEM_ROTATABLE_BOND_COUNT>
1

> <JCHEM_RULE_OF_FIVE>
1

> <ALOGPS_SOLUBILITY>
2.55e+00 g/l

> <JCHEM_TRADITIONAL_IUPAC>
thalidomide

> <JCHEM_VEBER_RULE>
0

> <DRUGBANK_ID>
DB01041

> <SECONDARY_ACCESSION_NUMBERS>
APRD01251

> <DRUG_GROUPS>
approved; investigational; withdrawn

> <GENERIC_NAME>
Thalidomide

> <SYNONYMS>
(+-)-N-(2,6-dioxo-3-Piperidyl)phthalimide; (+-)-Thalidomide; (±)-N-(2,6-dioxo-3-piperidyl)phthalimide; (±)-thalidomide; 1,3-dioxo-2-(2,6-dioxopiperidin-3-yl)isoindoline; 2,6-dioxo-3-phthalimidopiperidine; 3-Phthalimidoglutarimide; alpha-(N-Phthalimido)glutarimide; alpha-N-Phthalylglutaramide; N-(2,6-dioxo-3-piperidyl)phthalimide; N-Phthaloylglutamimide; N-Phthalyl-glutaminsaeure-imid; N-Phthalylglutamic acid imide; Talidomida; Thalidomide; Thalidomidum; α-(N-phthalimido)glutarimide; α-N-phthalylglutaramide; α-phthalimidoglutarimide

> <PRODUCTS>
Thalidomide Celgene; Thalomid

> <INTERNATIONAL_BRANDS>
Contergan; Distaval; K-17; Sedalis; Softenon; Talimol; Thaled

$$$$

  Mrv1572003301621172D          

 22 23  0  0  0  0            999 V2000
   -3.1915    0.3148    0.0000 C   0  0  0  0  0  0  0  0  0  0  0  0
   -3.9452    0.6504    0.0000 C   0  0  0  0  0  0  0  0  0  0  0  0
   -4.6126    0.1655    0.0000 C   0  0  0  0  0  0  0  0  0  0  0  0
   -4.5264   -0.6549    0.0000 C   0  0  0  0  0  0  0  0  0  0  0  0
   -3.7727   -0.9905    0.0000 C   0  0  0  0  0  0  0  0  0  0  0  0
   -3.1053   -0.5055    0.0000 C   0  0  0  0  0  0  0  0  0  0  0  0
   -2.4379   -0.9905    0.0000 C   0  0  0  0  0  0  0  0  0  0  0  0
   -3.5178   -1.7751    0.0000 N   0  0  0  0  0  0  0  0  0  0  0  0
   -2.6928   -1.7751    0.0000 C   0  0  0  0  0  0  0  0  0  0  0  0
   -1.7234   -0.5780    0.0000 C   0  0  0  0  0  0  0  0  0  0  0  0
   -1.0560   -1.0629    0.0000 N   0  0  0  0  0  0  0  0  0  0  0  0
   -0.3415   -0.6504    0.0000 N   0  0  0  0  0  0  0  0  0  0  0  0
    0.3728   -1.0629    0.0000 C   0  0  0  0  0  0  0  0  0  0  0  0
    1.0873   -0.6504    0.0000 N   0  0  0  0  0  0  0  0  0  0  0  0
    1.8018   -1.0629    0.0000 C   0  0  0  0  0  0  0  0  0  0  0  0
    2.5163   -0.6504    0.0000 C   0  0  0  0  0  0  0  0  0  0  0  0
    3.2307   -1.0629    0.0000 C   0  0  0  0  0  0  0  0  0  0  0  0
    3.9452   -0.6504    0.0000 C   0  0  0  0  0  0  0  0  0  0  0  0
    4.6597   -1.0629    0.0000 C   0  0  0  0  0  0  0  0  0  0  0  0
    0.3728   -1.8879    0.0000 N   0  0  0  0  0  0  0  0  0  0  0  0
   -3.9452    1.4754    0.0000 O   0  0  0  0  0  0  0  0  0  0  0  0
   -4.6597    1.8879    0.0000 C   0  0  0  0  0  0  0  0  0  0  0  0
  1  2  2  0  0  0  0
  1  6  1  0  0  0  0
  2  3  1  0  0  0  0
  3  4  2  0  0  0  0
  4  5  1  0  0  0  0
  5  8  1  0  0  0  0
  6  5  2  0  0  0  0
  7  6  1  0  0  0  0
  7  9  2  0  0  0  0
  8  9  1  0  0  0  0
 10 11  2  0  0  0  0
 11 12  1  0  0  0  0
 12 13  1  0  0  0  0
 13 14  1  0  0  0  0
 14 15  1  0  0  0  0
 15 16  1  0  0  0  0
 16 17  1  0  0  0  0
 17 18  1  0  0  0  0
 18 19  1  0  0  0  0
 10  7  1  0  0  0  0
 13 20  2  0  0  0  0
  2 21  1  0  0  0  0
 21 22  1  0  0  0  0
M  END
> <DATABASE_ID>
DB01079

> <DATABASE_NAME>
drugbank

> <SMILES>
CCCCCNC(=N)N\N=C\C1=CNC2=C1C=C(OC)C=C2

> <INCHI_IDENTIFIER>
InChI=1S/C16H23N5O/c1-3-4-5-8-18-16(17)21-20-11-12-10-19-15-7-6-13(22-2)9-14(12)15/h6-7,9-11,19H,3-5,8H2,1-2H3,(H3,17,18,21)/b20-11+

> <INCHI_KEY>
IKBKZGMPCYNSLU-RGVLZGJSSA-N

> <FORMULA>
C16H23N5O

> <MOLECULAR_WEIGHT>
301.394

> <EXACT_MASS>
301.190260381

> <JCHEM_ACCEPTOR_COUNT>
5

> <JCHEM_ATOM_COUNT>
45

> <JCHEM_AVERAGE_POLARIZABILITY>
34.96184660086094

> <JCHEM_BIOAVAILABILITY>
1

> <JCHEM_DONOR_COUNT>
4

> <JCHEM_FORMAL_CHARGE>
0

> <JCHEM_GHOSE_FILTER>
1

> <JCHEM_IUPAC>
N'-[(E)-[(5-methoxy-1H-indol-3-yl)methylidene]amino]-N-pentylguanidine

> <ALOGPS_LOGP>
2.76

> <JCHEM_LOGP>
2.9544107576666665

> <ALOGPS_LOGS>
-4.02

> <JCHEM_MDDR_LIKE_RULE>
0

> <JCHEM_NUMBER_OF_RINGS>
2

> <JCHEM_PHYSIOLOGICAL_CHARGE>
1

> <JCHEM_PKA>
19.91484195141512

> <JCHEM_PKA_STRONGEST_ACIDIC>
15.243261145827702

> <JCHEM_PKA_STRONGEST_BASIC>
8.50075894690013

> <JCHEM_POLAR_SURFACE_AREA>
85.29

> <JCHEM_REFRACTIVITY>
110.24959999999999

> <JCHEM_ROTATABLE_BOND_COUNT>
7

> <JCHEM_RULE_OF_FIVE>
1

> <ALOGPS_SOLUBILITY>
2.88e-02 g/l

> <JCHEM_TRADITIONAL_IUPAC>
tegaserod

> <JCHEM_VEBER_RULE>
0

> <DRUGBANK_ID>
DB01079

> <SECONDARY_ACCESSION_NUMBERS>
APRD00096

> <DRUG_GROUPS>
approved; investigational; withdrawn

> <GENERIC_NAME>
Tegaserod

> <SYNONYMS>
1-(((5-Methoxyindol-3-yl)methylene)amino)-3-pentylguanidine; Tegaserod; Tégasérod; Tegaserodum

> <PRODUCTS>
Zelnorm

> <INTERNATIONAL_BRANDS>
Zelmac

> <SALTS>
Tegaserod maleate

$$$$
1105
  Mrv0541 02231215152D          

 19 20  0  0  1  0            999 V2000
    4.1251   -2.3645    0.0000 Cl  0  0  0  0  0  0  0  0  0  0  0  0
    2.8876    1.6500    0.0000 N   0  0  0  0  0  0  0  0  0  0  0  0
    4.1251    0.9356    0.0000 C   0  0  0  0  0  0  0  0  0  0  0  0
    4.9501    0.9356    0.0000 C   0  0  0  0  0  0  0  0  0  0  0  0
    4.1251    1.7606    0.0000 C   0  0  0  0  0  0  0  0  0  0  0  0
    3.3001    0.9356    0.0000 C   0  0  0  0  0  0  0  0  0  0  0  0
    4.9501    1.7606    0.0000 C   0  0  0  0  0  0  0  0  0  0  0  0
    4.1251    0.1106    0.0000 C   0  0  0  0  0  0  0  0  0  0  0  0
    2.8876    0.2210    0.0000 C   0  0  0  0  0  0  0  0  0  0  0  0
    2.0625    0.2210    0.0000 C   0  0  0  0  0  0  0  0  0  0  0  0
    4.8396   -0.3020    0.0000 C   0  0  0  0  0  0  0  0  0  0  0  0
    3.4106   -0.3020    0.0000 C   0  0  0  0  0  0  0  0  0  0  0  0
    2.0625    1.6500    0.0000 C   0  0  0  0  0  0  0  0  0  0  0  0
    3.3001    2.3645    0.0000 C   0  0  0  0  0  0  0  0  0  0  0  0
    1.6500   -0.4934    0.0000 C   0  0  0  0  0  0  0  0  0  0  0  0
    1.6500    0.9356    0.0000 C   0  0  0  0  0  0  0  0  0  0  0  0
    4.8396   -1.1270    0.0000 C   0  0  0  0  0  0  0  0  0  0  0  0
    3.4106   -1.1270    0.0000 C   0  0  0  0  0  0  0  0  0  0  0  0
    4.1251   -1.5395    0.0000 C   0  0  0  0  0  0  0  0  0  0  0  0
  1 19  1  0  0  0  0
  2  6  1  0  0  0  0
  2 13  1  0  0  0  0
  2 14  1  0  0  0  0
  3  4  1  0  0  0  0
  3  5  1  0  0  0  0
  3  6  1  0  0  0  0
  3  8  1  0  0  0  0
  4  7  1  0  0  0  0
  5  7  1  0  0  0  0
  6  9  1  0  0  0  0
  8 11  2  0  0  0  0
  8 12  1  0  0  0  0
  9 10  1  0  0  0  0
 10 15  1  0  0  0  0
 10 16  1  0  0  0  0
 11 17  1  0  0  0  0
 12 18  2  0  0  0  0
 17 19  2  0  0  0  0
 18 19  1  0  0  0  0
M  END
> <DATABASE_ID>
DB01105

> <DATABASE_NAME>
drugbank

> <SMILES>
CC(C)CC(N(C)C)C1(CCC1)C1=CC=C(Cl)C=C1

> <INCHI_IDENTIFIER>
InChI=1S/C17H26ClN/c1-13(2)12-16(19(3)4)17(10-5-11-17)14-6-8-15(18)9-7-14/h6-9,13,16H,5,10-12H2,1-4H3

> <INCHI_KEY>
UNAANXDKBXWMLN-UHFFFAOYSA-N

> <FORMULA>
C17H26ClN

> <MOLECULAR_WEIGHT>
279.848

> <EXACT_MASS>
279.175377544

> <JCHEM_ACCEPTOR_COUNT>
1

> <JCHEM_AVERAGE_POLARIZABILITY>
32.9023403046818

> <JCHEM_BIOAVAILABILITY>
1

> <JCHEM_DONOR_COUNT>
0

> <JCHEM_FORMAL_CHARGE>
0

> <JCHEM_GHOSE_FILTER>
1

> <JCHEM_IUPAC>
{1-[1-(4-chlorophenyl)cyclobutyl]-3-methylbutyl}dimethylamine

> <ALOGPS_LOGP>
5.05

> <JCHEM_LOGP>
5.201850084

> <ALOGPS_LOGS>
-5.47

> <JCHEM_MDDR_LIKE_RULE>
0

> <JCHEM_NUMBER_OF_RINGS>
2

> <JCHEM_PHYSIOLOGICAL_CHARGE>
1

> <JCHEM_PKA_STRONGEST_BASIC>
9.774437990168428

> <JCHEM_POLAR_SURFACE_AREA>
3.24

> <JCHEM_REFRACTIVITY>
83.9214

> <JCHEM_ROTATABLE_BOND_COUNT>
5

> <JCHEM_RULE_OF_FIVE>
0

> <ALOGPS_SOLUBILITY>
9.40e-04 g/l

> <JCHEM_TRADITIONAL_IUPAC>
sibutramine

> <JCHEM_VEBER_RULE>
1

> <DRUGBANK_ID>
DB01105

> <SECONDARY_ACCESSION_NUMBERS>
APRD00456

> <DRUG_GROUPS>
approved; illicit; investigational; withdrawn

> <GENERIC_NAME>
Sibutramine

> <SYNONYMS>
Sibutramina; Sibutramine; Sibutraminum

> <PRODUCTS>
Apo-sibutramine; Meridia

> <INTERNATIONAL_BRANDS>
Butramin; Medaria; Reductil

> <SALTS>
Sibutramine hydrochloride

$$$$
1107
  Mrv0541 02231215152D          

 13 13  0  0  1  0            999 V2000
    1.6500    0.1106    0.0000 O   0  0  0  0  0  0  0  0  0  0  0  0
    4.5080    0.1106    0.0000 O   0  0  0  0  0  0  0  0  0  0  0  0
    3.7935   -1.1270    0.0000 N   0  0  0  0  0  0  0  0  0  0  0  0
    3.0791    0.1106    0.0000 C   0  0  0  0  0  0  0  0  0  0  0  0
    2.3645   -1.1270    0.0000 C   0  0  0  0  0  0  0  0  0  0  0  0
    2.3645   -0.3020    0.0000 C   0  0  0  0  0  0  0  0  0  0  0  0
    2.6665    0.8250    0.0000 C   0  0  0  0  0  0  0  0  0  0  0  0
    3.4916    0.8250    0.0000 C   0  0  0  0  0  0  0  0  0  0  0  0
    3.7935   -0.3020    0.0000 C   0  0  0  0  0  0  0  0  0  0  0  0
    3.0791   -1.5395    0.0000 C   0  0  0  0  0  0  0  0  0  0  0  0
    1.6500   -1.5395    0.0000 C   0  0  0  0  0  0  0  0  0  0  0  0
    1.8415    0.8250    0.0000 C   0  0  0  0  0  0  0  0  0  0  0  0
    3.0791    1.5395    0.0000 C   0  0  0  0  0  0  0  0  0  0  0  0
  1  6  2  0  0  0  0
  2  9  2  0  0  0  0
  3  9  1  0  0  0  0
  3 10  1  0  0  0  0
  4  6  1  0  0  0  0
  4  7  1  0  0  0  0
  4  8  1  0  0  0  0
  4  9  1  0  0  0  0
  5  6  1  0  0  0  0
  5 10  1  0  0  0  0
  5 11  1  0  0  0  0
  7 12  1  0  0  0  0
  8 13  1  0  0  0  0
M  END
> <DATABASE_ID>
DB01107

> <DATABASE_NAME>
drugbank

> <SMILES>
CCC1(CC)C(=O)NCC(C)C1=O

> <INCHI_IDENTIFIER>
InChI=1S/C10H17NO2/c1-4-10(5-2)8(12)7(3)6-11-9(10)13/h7H,4-6H2,1-3H3,(H,11,13)

> <INCHI_KEY>
SIDLZWOQUZRBRU-UHFFFAOYSA-N

> <FORMULA>
C10H17NO2

> <MOLECULAR_WEIGHT>
183.2475

> <EXACT_MASS>
183.125928793

> <JCHEM_ACCEPTOR_COUNT>
2

> <JCHEM_AVERAGE_POLARIZABILITY>
19.952090892432373

> <JCHEM_BIOAVAILABILITY>
1

> <JCHEM_DONOR_COUNT>
1

> <JCHEM_FORMAL_CHARGE>
0

> <JCHEM_GHOSE_FILTER>
1

> <JCHEM_IUPAC>
3,3-diethyl-5-methylpiperidine-2,4-dione

> <ALOGPS_LOGP>
0.94

> <JCHEM_LOGP>
1.8847076539999998

> <ALOGPS_LOGS>
-1.21

> <JCHEM_MDDR_LIKE_RULE>
0

> <JCHEM_NUMBER_OF_RINGS>
1

> <JCHEM_PHYSIOLOGICAL_CHARGE>
0

> <JCHEM_PKA>
18.48863347852474

> <JCHEM_PKA_STRONGEST_ACIDIC>
14.534169348808579

> <JCHEM_PKA_STRONGEST_BASIC>
-3.146638093056246

> <JCHEM_POLAR_SURFACE_AREA>
46.17

> <JCHEM_REFRACTIVITY>
50.250099999999996

> <JCHEM_ROTATABLE_BOND_COUNT>
2

> <JCHEM_RULE_OF_FIVE>
1

> <ALOGPS_SOLUBILITY>
1.13e+01 g/l

> <JCHEM_TRADITIONAL_IUPAC>
dimerin

> <JCHEM_VEBER_RULE>
0

> <DRUGBANK_ID>
DB01107

> <SECONDARY_ACCESSION_NUMBERS>
APRD00734

> <DRUG_GROUPS>
approved; illicit; withdrawn

> <GENERIC_NAME>
Methyprylon

> <SYNONYMS>
Methyprylon; Methyprylone; Methyprylonum; Metiprilon; Metiprilona; Metiprilone

> <INTERNATIONAL_BRANDS>
Dimerin; Noctan; Noludar

$$$$

  Mrv1718008301812072D          

 27 31  0  0  0  0            999 V2000
   -0.9919    0.0929    0.0000 C   0  0  0  0  0  0  0  0  0  0  0  0
   -1.7065   -0.3196    0.0000 C   0  0  0  0  0  0  0  0  0  0  0  0
   -1.7065   -1.1447    0.0000 C   0  0  0  0  0  0  0  0  0  0  0  0
   -0.9919   -1.5571    0.0000 C   0  0  2  0  0  0  0  0  0  0  0  0
   -0.2775   -1.1447    0.0000 C   0  0  1  0  0  0  0  0  0  0  0  0
   -0.2775   -0.3196    0.0000 C   0  0  1  0  0  0  0  0  0  0  0  0
    0.4368    0.0929    0.0000 C   0  0  2  0  0  0  0  0  0  0  0  0
    0.4368   -1.5571    0.0000 C   0  0  0  0  0  0  0  0  0  0  0  0
    1.1514   -1.1447    0.0000 C   0  0  0  0  0  0  0  0  0  0  0  0
    1.1514   -0.3196    0.0000 C   0  0  1  0  0  0  0  0  0  0  0  0
    1.1514    1.3304    0.0000 C   0  0  0  0  0  0  0  0  0  0  0  0
    0.4368    0.9179    0.0000 C   0  0  0  0  0  0  0  0  0  0  0  0
    1.8658    0.0929    0.0000 C   0  0  1  0  0  0  0  0  0  0  0  0
    1.8658    0.9179    0.0000 C   0  0  1  0  0  0  0  0  0  0  0  0
    2.6505    1.1728    0.0000 C   0  0  2  0  0  0  0  0  0  0  0  0
    2.6505   -0.1620    0.0000 C   0  0  0  0  0  0  0  0  0  0  0  0
    3.1354    0.5053    0.0000 C   0  0  0  0  0  0  0  0  0  0  0  0
   -2.4208   -1.5571    0.0000 O   0  0  0  0  0  0  0  0  0  0  0  0
   -2.4208    0.0928    0.0000 C   0  0  0  0  0  0  0  0  0  0  0  0
   -3.1353    0.5053    0.0000 N   0  0  0  0  0  0  0  0  0  0  0  0
   -0.2775   -1.9696    0.0000 O   0  0  0  0  0  0  0  0  0  0  0  0
    0.4368   -0.7320    0.0000 H   0  0  0  0  0  0  0  0  0  0  0  0
    1.8658   -0.7320    0.0000 H   0  0  0  0  0  0  0  0  0  0  0  0
   -0.2775    0.5053    0.0000 C   0  0  0  0  0  0  0  0  0  0  0  0
    1.8658    1.7429    0.0000 C   0  0  0  0  0  0  0  0  0  0  0  0
    2.8640    1.9697    0.0000 O   0  0  0  0  0  0  0  0  0  0  0  0
    1.1514    0.5053    0.0000 H   0  0  0  0  0  0  0  0  0  0  0  0
  1  2  1  0  0  0  0
  2  3  2  0  0  0  0
  3  4  1  0  0  0  0
  4  5  1  0  0  0  0
  1  6  1  0  0  0  0
  7  6  1  0  0  0  0
  6  5  1  0  0  0  0
  5  8  1  0  0  0  0
  8  9  1  0  0  0  0
  9 10  1  0  0  0  0
 10 13  1  0  0  0  0
  7 10  1  0  0  0  0
 12  7  1  0  0  0  0
 11 12  1  0  0  0  0
 11 14  1  0  0  0  0
 13 16  1  0  0  0  0
 14 13  1  0  0  0  0
 15 14  1  0  0  0  0
 16 17  1  0  0  0  0
 15 17  1  0  0  0  0
  3 18  1  0  0  0  0
  2 19  1  0  0  0  0
 19 20  3  0  0  0  0
  5 21  1  6  0  0  0
  4 21  1  6  0  0  0
  7 22  1  6  0  0  0
 13 23  1  6  0  0  0
  6 24  1  1  0  0  0
 14 25  1  1  0  0  0
 15 26  1  1  0  0  0
 10 27  1  1  0  0  0
M  END
> <DATABASE_ID>
DB01108

> <DATABASE_NAME>
drugbank

> <SMILES>
[H][C@@]12CC[C@H](O)[C@@]1(C)CC[C@@]1([H])[C@@]2([H])CC[C@@]23O[C@@H]2C(O)=C(C[C@]13C)C#N

> <INCHI_IDENTIFIER>
InChI=1S/C20H27NO3/c1-18-7-6-14-12(13(18)3-4-15(18)22)5-8-20-17(24-20)16(23)11(10-21)9-19(14,20)2/h12-15,17,22-23H,3-9H2,1-2H3/t12-,13-,14-,15-,17+,18-,19+,20+/m0/s1

> <INCHI_KEY>
KVJXBPDAXMEYOA-CXANFOAXSA-N

> <FORMULA>
C20H27NO3

> <MOLECULAR_WEIGHT>
329.4333

> <EXACT_MASS>
329.199093735

> <JCHEM_ACCEPTOR_COUNT>
4

> <JCHEM_ATOM_COUNT>
51

> <JCHEM_AVERAGE_POLARIZABILITY>
36.80893647467444

> <JCHEM_BIOAVAILABILITY>
1

> <JCHEM_DONOR_COUNT>
2

> <JCHEM_FORMAL_CHARGE>
0

> <JCHEM_GHOSE_FILTER>
1

> <JCHEM_IUPAC>
(1S,2R,6R,8S,11S,12S,15S,16S)-5,15-dihydroxy-2,16-dimethyl-7-oxapentacyclo[9.7.0.0^{2,8}.0^{6,8}.0^{12,16}]octadec-4-ene-4-carbonitrile

> <ALOGPS_LOGP>
2.41

> <JCHEM_LOGP>
2.300783866666666

> <ALOGPS_LOGS>
-3.75

> <JCHEM_MDDR_LIKE_RULE>
0

> <JCHEM_NUMBER_OF_RINGS>
5

> <JCHEM_PHYSIOLOGICAL_CHARGE>
-1

> <JCHEM_PKA>
19.3777053517066

> <JCHEM_PKA_STRONGEST_ACIDIC>
5.231169871976814

> <JCHEM_PKA_STRONGEST_BASIC>
-0.8838175253814861

> <JCHEM_POLAR_SURFACE_AREA>
76.78

> <JCHEM_REFRACTIVITY>
90.17459999999998

> <JCHEM_ROTATABLE_BOND_COUNT>
0

> <JCHEM_RULE_OF_FIVE>
1

> <ALOGPS_SOLUBILITY>
5.92e-02 g/l

> <JCHEM_TRADITIONAL_IUPAC>
(1S,2R,6R,8S,11S,12S,15S,16S)-5,15-dihydroxy-2,16-dimethyl-7-oxapentacyclo[9.7.0.0^{2,8}.0^{6,8}.0^{12,16}]octadec-4-ene-4-carbonitrile

> <JCHEM_VEBER_RULE>
0

> <DRUGBANK_ID>
DB01108

> <SECONDARY_ACCESSION_NUMBERS>
APRD01276

> <DRUG_GROUPS>
approved; investigational; vet_approved; withdrawn

> <GENERIC_NAME>
Trilostane

> <SYNONYMS>
Trilostane; Trilostano; Trilostanum

> <INTERNATIONAL_BRANDS>
Desopan; Modrastane; Modrenal

$$$$

  Mrv0541 04191212172D          

 26 28  0  0  1  0            999 V2000
   17.8239   -8.7812    0.0000 C   0  0  2  0  0  0  0  0  0  0  0  0
   17.8239   -9.6062    0.0000 N   0  0  0  0  0  0  0  0  0  0  0  0
   18.5384  -10.0187    0.0000 C   0  0  0  0  0  0  0  0  0  0  0  0
   19.2529   -9.6062    0.0000 C   0  0  0  0  0  0  0  0  0  0  0  0
   19.2529   -8.7812    0.0000 C   0  0  0  0  0  0  0  0  0  0  0  0
   18.5384   -8.3687    0.0000 S   0  0  0  0  0  0  0  0  0  0  0  0
   16.9989   -8.7812    0.0000 C   0  0  1  0  0  0  0  0  0  0  0  0
   16.9989   -9.6062    0.0000 C   0  0  0  0  0  0  0  0  0  0  0  0
   16.2844   -8.3687    0.0000 N   0  0  0  0  0  0  0  0  0  0  0  0
   15.5698   -8.7812    0.0000 C   0  0  0  0  0  0  0  0  0  0  0  0
   15.5698   -9.6062    0.0000 O   0  0  0  0  0  0  0  0  0  0  0  0
   16.2844  -10.0187    0.0000 O   0  0  0  0  0  0  0  0  0  0  0  0
   14.8553   -8.3687    0.0000 C   0  0  1  0  0  0  0  0  0  0  0  0
   19.9784  -10.0253    0.0000 C   0  0  0  0  0  0  0  0  0  0  0  0
   18.5384  -10.8436    0.0000 C   0  0  0  0  0  0  0  0  0  0  0  0
   17.8140  -11.2620    0.0000 O   0  0  0  0  0  0  0  0  0  0  0  0
   19.2429  -11.2505    0.0000 O   0  0  0  0  0  0  0  0  0  0  0  0
   14.1293   -8.7881    0.0000 C   0  0  0  0  0  0  0  0  0  0  0  0
   13.4158   -8.3761    0.0000 C   0  0  0  0  0  0  0  0  0  0  0  0
   12.7021   -8.7881    0.0000 C   0  0  0  0  0  0  0  0  0  0  0  0
   12.7021   -9.6121    0.0000 C   0  0  0  0  0  0  0  0  0  0  0  0
   13.4158  -10.0241    0.0000 C   0  0  0  0  0  0  0  0  0  0  0  0
   14.1293   -9.6121    0.0000 C   0  0  0  0  0  0  0  0  0  0  0  0
   14.8553   -7.5410    0.0000 N   0  0  0  0  0  0  0  0  0  0  0  0
   17.8239   -7.9553    0.0000 H   0  0  0  0  0  0  0  0  0  0  0  0
   11.9953  -10.0203    0.0000 O   0  0  0  0  0  0  0  0  0  0  0  0
  1  2  1  0  0  0  0
  2  3  1  0  0  0  0
  3  4  2  0  0  0  0
  4  5  1  0  0  0  0
  5  6  1  0  0  0  0
  1  6  1  0  0  0  0
  1  7  1  0  0  0  0
  7  8  1  0  0  0  0
  2  8  1  0  0  0  0
  7  9  1  1  0  0  0
  9 10  1  0  0  0  0
 10 11  2  0  0  0  0
  8 12  2  0  0  0  0
 10 13  1  0  0  0  0
  4 14  1  0  0  0  0
  3 15  1  0  0  0  0
 15 16  2  0  0  0  0
 15 17  1  0  0  0  0
 13 18  1  0  0  0  0
 18 19  2  0  0  0  0
 19 20  1  0  0  0  0
 20 21  2  0  0  0  0
 21 22  1  0  0  0  0
 22 23  2  0  0  0  0
 18 23  1  0  0  0  0
 13 24  1  1  0  0  0
  1 25  1  6  0  0  0
 21 26  1  0  0  0  0
M  END
> <DATABASE_ID>
DB01140

> <DATABASE_NAME>
drugbank

> <SMILES>
[H][C@]12SCC(C)=C(N1C(=O)[C@H]2NC(=O)[C@H](N)C1=CC=C(O)C=C1)C(O)=O

> <INCHI_IDENTIFIER>
InChI=1S/C16H17N3O5S/c1-7-6-25-15-11(14(22)19(15)12(7)16(23)24)18-13(21)10(17)8-2-4-9(20)5-3-8/h2-5,10-11,15,20H,6,17H2,1H3,(H,18,21)(H,23,24)/t10-,11-,15-/m1/s1

> <INCHI_KEY>
BOEGTKLJZSQCCD-UEKVPHQBSA-N

> <FORMULA>
C16H17N3O5S

> <MOLECULAR_WEIGHT>
363.388

> <EXACT_MASS>
363.088891359

> <JCHEM_ACCEPTOR_COUNT>
6

> <JCHEM_AVERAGE_POLARIZABILITY>
35.86177537632552

> <JCHEM_BIOAVAILABILITY>
1

> <JCHEM_DONOR_COUNT>
4

> <JCHEM_FORMAL_CHARGE>
0

> <JCHEM_GHOSE_FILTER>
0

> <JCHEM_IUPAC>
(6R,7R)-7-[(2R)-2-amino-2-(4-hydroxyphenyl)acetamido]-3-methyl-8-oxo-5-thia-1-azabicyclo[4.2.0]oct-2-ene-2-carboxylic acid

> <ALOGPS_LOGP>
0.51

> <JCHEM_LOGP>
-2.4485235229519144

> <ALOGPS_LOGS>
-2.96

> <JCHEM_MDDR_LIKE_RULE>
0

> <JCHEM_NUMBER_OF_RINGS>
3

> <JCHEM_PHYSIOLOGICAL_CHARGE>
0

> <JCHEM_PKA>
9.47951977832049

> <JCHEM_PKA_STRONGEST_ACIDIC>
3.445403259534226

> <JCHEM_PKA_STRONGEST_BASIC>
7.429743431066661

> <JCHEM_POLAR_SURFACE_AREA>
132.96

> <JCHEM_REFRACTIVITY>
90.95450000000001

> <JCHEM_ROTATABLE_BOND_COUNT>
4

> <JCHEM_RULE_OF_FIVE>
1

> <ALOGPS_SOLUBILITY>
3.99e-01 g/l

> <JCHEM_TRADITIONAL_IUPAC>
cephadroxil

> <JCHEM_VEBER_RULE>
0

> <DRUGBANK_ID>
DB01140

> <SECONDARY_ACCESSION_NUMBERS>
APRD00196

> <DRUG_GROUPS>
approved; vet_approved; withdrawn

> <GENERIC_NAME>
Cefadroxil

> <SYNONYMS>
CDX; Cefadroxil; Cefadroxil anhydrous; Cefadroxilo; Cefadroxilum; Cephadroxil; D-Cefadroxil

> <PRODUCTS>
Apo-cefadroxil; Cefadroxil; Duricef; Pro-cefadroxil - 500; Teva-cefadroxil

> <INTERNATIONAL_BRANDS>
Baxan; Bidocef; Cefamox; Duracef; Oracefal

> <SALTS>
Cefadroxil hemihydrate; Cefadroxil monohydrate; Cefadroxil sodium

$$$$
1149
  Mrv0541 02231215172D          

 33 36  0  0  0  0            999 V2000
    1.6500   -5.0560    0.0000 Cl  0  0  0  0  0  0  0  0  0  0  0  0
    3.9811    2.9167    0.0000 O   0  0  0  0  0  0  0  0  0  0  0  0
    6.8929    4.1298    0.0000 O   0  0  0  0  0  0  0  0  0  0  0  0
    3.0791   -0.9309    0.0000 N   0  0  0  0  0  0  0  0  0  0  0  0
    3.0791   -2.5809    0.0000 N   0  0  0  0  0  0  0  0  0  0  0  0
    4.5080    1.5442    0.0000 N   0  0  0  0  0  0  0  0  0  0  0  0
    5.4012    2.5362    0.0000 N   0  0  0  0  0  0  0  0  0  0  0  0
    5.2616    1.2086    0.0000 N   0  0  0  0  0  0  0  0  0  0  0  0
    2.3645   -1.3434    0.0000 C   0  0  0  0  0  0  0  0  0  0  0  0
    3.7935   -1.3434    0.0000 C   0  0  0  0  0  0  0  0  0  0  0  0
    2.3645   -2.1684    0.0000 C   0  0  0  0  0  0  0  0  0  0  0  0
    3.7935   -2.1684    0.0000 C   0  0  0  0  0  0  0  0  0  0  0  0
    3.0791   -0.1058    0.0000 C   0  0  0  0  0  0  0  0  0  0  0  0
    3.7935    0.3067    0.0000 C   0  0  0  0  0  0  0  0  0  0  0  0
    3.7935    1.1317    0.0000 C   0  0  0  0  0  0  0  0  0  0  0  0
    3.0791   -3.4059    0.0000 C   0  0  0  0  0  0  0  0  0  0  0  0
    4.5942    2.3647    0.0000 C   0  0  0  0  0  0  0  0  0  0  0  0
    5.8137    1.8217    0.0000 C   0  0  0  0  0  0  0  0  0  0  0  0
    2.3645   -3.8184    0.0000 C   0  0  0  0  0  0  0  0  0  0  0  0
    3.7935   -3.8184    0.0000 C   0  0  0  0  0  0  0  0  0  0  0  0
    5.7368    3.2899    0.0000 C   0  0  0  0  0  0  0  0  0  0  0  0
    6.6342    1.7355    0.0000 C   0  0  0  0  0  0  0  0  0  0  0  0
    2.3645   -4.6434    0.0000 C   0  0  0  0  0  0  0  0  0  0  0  0
    3.7935   -4.6434    0.0000 C   0  0  0  0  0  0  0  0  0  0  0  0
    6.5572    3.3761    0.0000 C   0  0  0  0  0  0  0  0  0  0  0  0
    3.0791   -5.0560    0.0000 C   0  0  0  0  0  0  0  0  0  0  0  0
    6.9698    0.9818    0.0000 C   0  0  0  0  0  0  0  0  0  0  0  0
    7.7133    4.2161    0.0000 C   0  0  0  0  0  0  0  0  0  0  0  0
    8.0489    4.9697    0.0000 C   0  0  0  0  0  0  0  0  0  0  0  0
    8.1983    3.5486    0.0000 C   0  0  0  0  0  0  0  0  0  0  0  0
    8.8694    5.0560    0.0000 C   0  0  0  0  0  0  0  0  0  0  0  0
    9.0188    3.6349    0.0000 C   0  0  0  0  0  0  0  0  0  0  0  0
    9.3543    4.3885    0.0000 C   0  0  0  0  0  0  0  0  0  0  0  0
  1 23  1  0  0  0  0
  2 17  2  0  0  0  0
  3 25  1  0  0  0  0
  3 28  1  0  0  0  0
  4  9  1  0  0  0  0
  4 10  1  0  0  0  0
  4 13  1  0  0  0  0
  5 11  1  0  0  0  0
  5 12  1  0  0  0  0
  5 16  1  0  0  0  0
  6  8  1  0  0  0  0
  6 15  1  0  0  0  0
  6 17  1  0  0  0  0
  7 17  1  0  0  0  0
  7 18  1  0  0  0  0
  7 21  1  0  0  0  0
  8 18  2  0  0  0  0
  9 11  1  0  0  0  0
 10 12  1  0  0  0  0
 13 14  1  0  0  0  0
 14 15  1  0  0  0  0
 16 19  2  0  0  0  0
 16 20  1  0  0  0  0
 18 22  1  0  0  0  0
 19 23  1  0  0  0  0
 20 24  2  0  0  0  0
 21 25  1  0  0  0  0
 22 27  1  0  0  0  0
 23 26  2  0  0  0  0
 24 26  1  0  0  0  0
 28 29  2  0  0  0  0
 28 30  1  0  0  0  0
 29 31  1  0  0  0  0
 30 32  2  0  0  0  0
 31 33  2  0  0  0  0
 32 33  1  0  0  0  0
M  END
> <DATABASE_ID>
DB01149

> <DATABASE_NAME>
drugbank

> <SMILES>
CCC1=NN(CCCN2CCN(CC2)C2=CC(Cl)=CC=C2)C(=O)N1CCOC1=CC=CC=C1

> <INCHI_IDENTIFIER>
InChI=1S/C25H32ClN5O2/c1-2-24-27-31(25(32)30(24)18-19-33-23-10-4-3-5-11-23)13-7-12-28-14-16-29(17-15-28)22-9-6-8-21(26)20-22/h3-6,8-11,20H,2,7,12-19H2,1H3

> <INCHI_KEY>
VRBKIVRKKCLPHA-UHFFFAOYSA-N

> <FORMULA>
C25H32ClN5O2

> <MOLECULAR_WEIGHT>
470.007

> <EXACT_MASS>
469.224453

> <JCHEM_ACCEPTOR_COUNT>
5

> <JCHEM_AVERAGE_POLARIZABILITY>
51.848439212139965

> <JCHEM_BIOAVAILABILITY>
1

> <JCHEM_DONOR_COUNT>
0

> <JCHEM_FORMAL_CHARGE>
0

> <JCHEM_GHOSE_FILTER>
0

> <JCHEM_IUPAC>
1-{3-[4-(3-chlorophenyl)piperazin-1-yl]propyl}-3-ethyl-4-(2-phenoxyethyl)-4,5-dihydro-1H-1,2,4-triazol-5-one

> <ALOGPS_LOGP>
3.71

> <JCHEM_LOGP>
4.652967894333333

> <ALOGPS_LOGS>
-3.83

> <JCHEM_MDDR_LIKE_RULE>
1

> <JCHEM_NUMBER_OF_RINGS>
4

> <JCHEM_PHYSIOLOGICAL_CHARGE>
1

> <JCHEM_PKA_STRONGEST_BASIC>
7.088044376629501

> <JCHEM_POLAR_SURFACE_AREA>
51.620000000000005

> <JCHEM_REFRACTIVITY>
132.376

> <JCHEM_ROTATABLE_BOND_COUNT>
10

> <JCHEM_RULE_OF_FIVE>
1

> <ALOGPS_SOLUBILITY>
6.98e-02 g/l

> <JCHEM_TRADITIONAL_IUPAC>
nefazodone

> <JCHEM_VEBER_RULE>
0

> <DRUGBANK_ID>
DB01149

> <SECONDARY_ACCESSION_NUMBERS>
APRD00402

> <DRUG_GROUPS>
approved; withdrawn

> <GENERIC_NAME>
Nefazodone

> <SYNONYMS>
1-(3-(4-(m-Chlorophenyl)-1-piperazinyl)propyl)-3-ethyl-4-(2-phenoxyethyl)-delta2-1,2,4-triazolin-5-one; Nefazodona; Nefazodone; Nefazodonum

> <PRODUCTS>
Lin-nefazodone; Nefazodone Hydrochloride; Nefazodone hydrochloride; Serzone; Serzone-5ht2

> <INTERNATIONAL_BRANDS>
Dutonin

> <SALTS>
Nefazodone hydrochloride

$$$$

  Mrv1909 08181923252D          

 79 81  0  0  0  0            999 V2000
   -6.1673   -0.2818    0.0000 C   0  0  0  0  0  0  0  0  0  0  0  0
   -6.5802   -0.9959    0.0000 C   0  0  2  0  0  0  0  0  0  0  0  0
   -7.4013   -0.9959    0.0000 C   0  0  2  0  0  0  0  0  0  0  0  0
   -4.1998    2.4922    0.0000 C   0  0  0  0  0  0  0  0  0  0  0  0
   -6.5802    0.4322    0.0000 O   0  0  0  0  0  0  0  0  0  0  0  0
   -7.8190   -0.2818    0.0000 C   0  0  1  0  0  0  0  0  0  0  0  0
   -3.4808    2.9002    0.0000 C   0  0  0  0  0  0  0  0  0  0  0  0
   -4.2046    1.6663    0.0000 C   0  0  0  0  0  0  0  0  0  0  0  0
    6.5026    1.2145    0.0000 O   0  0  0  0  0  0  0  0  0  0  0  0
    7.2216    1.6274    0.0000 C   0  0  0  0  0  0  0  0  0  0  0  0
    6.5026    0.3886    0.0000 C   0  0  0  0  0  0  0  0  0  0  0  0
   -7.4013    0.4322    0.0000 C   0  0  1  0  0  0  0  0  0  0  0  0
   -4.9140    2.9099    0.0000 C   0  0  0  0  0  0  0  0  0  0  0  0
    7.2118   -2.5019    0.0000 C   0  0  0  0  0  0  0  0  0  0  0  0
    6.4977   -2.0889    0.0000 C   0  0  0  0  0  0  0  0  0  0  0  0
   -2.7716    2.4825    0.0000 C   0  0  0  0  0  0  0  0  0  0  0  0
    7.2216    2.4533    0.0000 C   0  0  0  0  0  0  0  0  0  0  0  0
   -5.3414   -0.2818    0.0000 O   0  0  0  0  0  0  0  0  0  0  0  0
   -4.9236    1.2582    0.0000 C   0  0  0  0  0  0  0  0  0  0  0  0
   -2.0524    2.8905    0.0000 C   0  0  0  0  0  0  0  0  0  0  0  0
    7.2167   -0.0242    0.0000 C   0  0  0  0  0  0  0  0  0  0  0  0
    7.2167   -0.8502    0.0000 C   0  0  0  0  0  0  0  0  0  0  0  0
    7.9308   -2.0889    0.0000 C   0  0  0  0  0  0  0  0  0  0  0  0
    5.7835   -2.5019    0.0000 C   0  0  0  0  0  0  0  0  0  0  0  0
   -4.9285    0.4322    0.0000 C   0  0  0  0  0  0  0  0  0  0  0  0
   -1.3383    2.4727    0.0000 C   0  0  0  0  0  0  0  0  0  0  0  0
    7.9308   -1.2630    0.0000 C   0  0  0  0  0  0  0  0  0  0  0  0
    6.5075    2.8662    0.0000 C   0  0  0  0  0  0  0  0  0  0  0  0
    7.9357    1.2097    0.0000 O   0  0  0  0  0  0  0  0  0  0  0  0
    2.9513    2.4484    0.0000 C   0  0  0  0  0  0  0  0  0  0  0  0
    5.7884   -0.0194    0.0000 C   0  0  0  0  0  0  0  0  0  0  0  0
   -4.9091    3.7358    0.0000 O   0  0  0  0  0  0  0  0  0  0  0  0
    1.5230    2.4581    0.0000 C   0  0  0  0  0  0  0  0  0  0  0  0
    0.0899    2.4679    0.0000 C   0  0  0  0  0  0  0  0  0  0  0  0
    3.6702    2.8565    0.0000 C   0  0  0  0  0  0  0  0  0  0  0  0
    6.4977   -1.2630    0.0000 O   0  0  0  0  0  0  0  0  0  0  0  0
   -0.6193    2.8856    0.0000 C   0  0  0  0  0  0  0  0  0  0  0  0
    2.2371    2.8662    0.0000 C   0  0  0  0  0  0  0  0  0  0  0  0
    0.8089    2.8760    0.0000 C   0  0  0  0  0  0  0  0  0  0  0  0
   -7.8142   -1.7101    0.0000 N   0  0  0  0  0  0  0  0  0  0  0  0
   -2.0475    3.7164    0.0000 O   0  0  0  0  0  0  0  0  0  0  0  0
   -2.0670    0.4177    0.0000 C   0  0  0  0  0  0  0  0  0  0  0  0
   -1.3529    0.0048    0.0000 C   0  0  0  0  0  0  0  0  0  0  0  0
   -0.6388    0.4129    0.0000 C   0  0  0  0  0  0  0  0  0  0  0  0
    0.0753    0.0000    0.0000 C   0  0  0  0  0  0  0  0  0  0  0  0
    0.7894    0.4080    0.0000 C   0  0  0  0  0  0  0  0  0  0  0  0
    1.5035   -0.0048    0.0000 C   0  0  0  0  0  0  0  0  0  0  0  0
    2.2177    0.4032    0.0000 C   0  0  0  0  0  0  0  0  0  0  0  0
    2.9318   -0.0096    0.0000 C   0  0  0  0  0  0  0  0  0  0  0  0
    3.6459    0.3984    0.0000 C   0  0  0  0  0  0  0  0  0  0  0  0
   -2.7812    0.0096    0.0000 C   0  0  0  0  0  0  0  0  0  0  0  0
    4.3602   -0.0145    0.0000 C   0  0  0  0  0  0  0  0  0  0  0  0
   -3.4954    0.4226    0.0000 C   0  0  0  0  0  0  0  0  0  0  0  0
   -4.2144    0.0145    0.0000 C   0  0  0  0  0  0  0  0  0  0  0  0
    5.0743    0.3935    0.0000 C   0  0  0  0  0  0  0  0  0  0  0  0
    6.5075    3.6921    0.0000 O   0  0  0  0  0  0  0  0  0  0  0  0
    3.6751    3.6823    0.0000 O   0  0  0  0  0  0  0  0  0  0  0  0
   -6.1624   -1.7101    0.0000 O   0  0  0  0  0  0  0  0  0  0  0  0
    5.0694   -2.0840    0.0000 C   0  0  0  0  0  0  0  0  0  0  0  0
    5.7884   -3.3229    0.0000 C   0  0  0  0  0  0  0  0  0  0  0  0
   -8.6450   -0.2818    0.0000 O   0  0  0  0  0  0  0  0  0  0  0  0
   -3.4759    3.7261    0.0000 O   0  0  0  0  0  0  0  0  0  0  0  0
   -3.4905    1.2484    0.0000 O   0  0  0  0  0  0  0  0  0  0  0  0
   -5.6281    2.5019    0.0000 O   0  0  0  0  0  0  0  0  0  0  0  0
    4.3553   -3.3229    0.0000 C   0  0  0  0  0  0  0  0  0  0  0  0
    3.6410   -3.7358    0.0000 N   0  0  0  0  0  0  0  0  0  0  0  0
    4.3553   -2.4971    0.0000 C   0  0  0  0  0  0  0  0  0  0  0  0
    5.0743   -3.7358    0.0000 C   0  0  0  0  0  0  0  0  0  0  0  0
    8.6450   -2.5019    0.0000 O   0  0  0  0  0  0  0  0  0  0  0  0
    0.8137    3.7018    0.0000 O   0  0  0  0  0  0  0  0  0  0  0  0
    2.2419    3.6921    0.0000 O   0  0  0  0  0  0  0  0  0  0  0  0
   -0.6145    3.7115    0.0000 O   0  0  0  0  0  0  0  0  0  0  0  0
   -7.8142    1.1514    0.0000 C   0  0  0  0  0  0  0  0  0  0  0  0
    5.0986    2.8516    0.0000 C   0  0  0  0  0  0  0  0  0  0  0  0
    7.9308    0.3886    0.0000 C   0  0  0  0  0  0  0  0  0  0  0  0
    5.7933    2.4533    0.0000 C   0  0  0  0  0  0  0  0  0  0  0  0
    4.3844    2.4435    0.0000 C   0  0  0  0  0  0  0  0  0  0  0  0
    8.6450   -0.8502    0.0000 C   0  0  0  0  0  0  0  0  0  0  0  0
    5.7835   -0.8453    0.0000 C   0  0  0  0  0  0  0  0  0  0  0  0
  2  1  1  0  0  0  0
  3  2  1  0  0  0  0
  4  8  1  0  0  0  0
  5  1  1  0  0  0  0
  6 12  1  0  0  0  0
  7  4  1  0  0  0  0
  8 19  1  0  0  0  0
  9 11  1  0  0  0  0
 10  9  1  0  0  0  0
 11 31  1  0  0  0  0
 12  5  1  0  0  0  0
 13  4  1  0  0  0  0
 14 23  1  0  0  0  0
 15 14  1  0  0  0  0
 16  7  1  0  0  0  0
 17 10  1  0  0  0  0
  1 18  1  0  0  0  0
 19 25  1  0  0  0  0
 20 16  1  0  0  0  0
 21 11  1  0  0  0  0
 22 21  1  0  0  0  0
 23 27  1  0  0  0  0
 24 15  1  0  0  0  0
 25 18  1  0  0  0  0
 26 20  1  0  0  0  0
 27 22  1  0  0  0  0
 28 76  1  0  0  0  0
 29 10  2  0  0  0  0
 30 38  1  0  0  0  0
 31 55  1  0  0  0  0
 32 13  2  0  0  0  0
 33 39  1  0  0  0  0
 34 37  1  0  0  0  0
 35 30  1  0  0  0  0
 36 15  2  0  0  0  0
 37 26  1  0  0  0  0
 38 33  1  0  0  0  0
 39 34  1  0  0  0  0
  3 40  1  1  0  0  0
 41 20  2  0  0  0  0
 42 51  2  0  0  0  0
 43 42  1  0  0  0  0
 44 43  2  0  0  0  0
 45 44  1  0  0  0  0
 46 45  2  0  0  0  0
 47 46  1  0  0  0  0
 48 47  2  0  0  0  0
 49 48  1  0  0  0  0
 50 49  2  0  0  0  0
 51 53  1  0  0  0  0
 52 50  1  0  0  0  0
 53 54  2  0  0  0  0
 54 25  1  0  0  0  0
 55 52  2  0  0  0  0
 56 28  2  0  0  0  0
 57 35  2  0  0  0  0
  2 58  1  1  0  0  0
 59 24  2  0  0  0  0
 60 24  1  0  0  0  0
  6 61  1  6  0  0  0
 62  7  1  0  0  0  0
 63  8  1  0  0  0  0
 64 13  1  0  0  0  0
 65 68  1  0  0  0  0
 66 65  1  0  0  0  0
 67 59  1  0  0  0  0
 68 60  2  0  0  0  0
 69 23  1  0  0  0  0
 70 39  1  0  0  0  0
 71 38  1  0  0  0  0
 72 37  1  0  0  0  0
 12 73  1  1  0  0  0
 74 77  1  0  0  0  0
 75 21  1  0  0  0  0
 76 74  1  0  0  0  0
 77 35  1  0  0  0  0
 78 27  1  0  0  0  0
 79 31  1  0  0  0  0
  6  3  1  0  0  0  0
 28 17  1  0  0  0  0
 65 67  2  0  0  0  0
M  END
> <DATABASE_ID>
DB01152

> <DATABASE_NAME>
drugbank

> <SMILES>
CC(CC(C)C1OC(=O)CC(=O)CCCC(=O)CC(O)CC(O)CC(O)CC(=O)CC(O)C(C(O)CC(OC2O[C@H](C)[C@@H](O)[C@H](N)[C@@H]2O)\C=C\C=C\C=C\C=C\C=C\C=C\C=C\C1C)C(O)=O)C(O)CC(=O)C1=CC=C(N)C=C1

> <INCHI_IDENTIFIER>
InChI=1S/C59H84N2O18/c1-35-18-15-13-11-9-7-5-6-8-10-12-14-16-21-47(78-59-56(74)54(61)55(73)38(4)77-59)33-51(71)53(58(75)76)50(70)31-46(67)30-45(66)29-44(65)28-43(64)27-41(62)19-17-20-42(63)32-52(72)79-57(35)37(3)26-36(2)48(68)34-49(69)39-22-24-40(60)25-23-39/h5-16,18,21-25,35-38,43-45,47-48,50-51,53-57,59,64-66,68,70-71,73-74H,17,19-20,26-34,60-61H2,1-4H3,(H,75,76)/b6-5+,9-7+,10-8+,13-11+,14-12+,18-15+,21-16+/t35?,36?,37?,38-,43?,44?,45?,47?,48?,50?,51?,53?,54+,55-,56+,57?,59?/m1/s1

> <INCHI_KEY>
OPGSFDUODIJJGF-JBUZINEHSA-N

> <FORMULA>
C59H84N2O18

> <MOLECULAR_WEIGHT>
1109.317

> <EXACT_MASS>
1108.571913873

> <JCHEM_ACCEPTOR_COUNT>
19

> <JCHEM_ATOM_COUNT>
163

> <JCHEM_AVERAGE_POLARIZABILITY>
118.61397677251071

> <JCHEM_BIOAVAILABILITY>
0

> <JCHEM_DONOR_COUNT>
11

> <JCHEM_FORMAL_CHARGE>
0

> <JCHEM_GHOSE_FILTER>
0

> <JCHEM_IUPAC>
(23E,25E,27E,29E,31E,33E,35E)-22-{[(3S,4S,5S,6R)-4-amino-3,5-dihydroxy-6-methyloxan-2-yl]oxy}-38-[7-(4-aminophenyl)-5-hydroxy-4-methyl-7-oxoheptan-2-yl]-10,12,14,18,20-pentahydroxy-37-methyl-2,4,8,16-tetraoxo-1-oxacyclooctatriaconta-23,25,27,29,31,33,35-heptaene-19-carboxylic acid

> <ALOGPS_LOGP>
-0.76

> <JCHEM_LOGP>
-0.028119118470332462

> <ALOGPS_LOGS>
-5.19

> <JCHEM_MDDR_LIKE_RULE>
1

> <JCHEM_NUMBER_OF_RINGS>
3

> <JCHEM_PHYSIOLOGICAL_CHARGE>
0

> <JCHEM_PKA>
10.146986061481469

> <JCHEM_PKA_STRONGEST_ACIDIC>
3.6844941739164736

> <JCHEM_PKA_STRONGEST_BASIC>
9.071718053390988

> <JCHEM_POLAR_SURFACE_AREA>
364.22

> <JCHEM_REFRACTIVITY>
302.1224999999999

> <JCHEM_ROTATABLE_BOND_COUNT>
10

> <JCHEM_RULE_OF_FIVE>
0

> <ALOGPS_SOLUBILITY>
7.14e-03 g/l

> <JCHEM_TRADITIONAL_IUPAC>
candicidin D

> <JCHEM_VEBER_RULE>
0

> <DRUGBANK_ID>
DB01152

> <SECONDARY_ACCESSION_NUMBERS>
APRD00843

> <DRUG_GROUPS>
approved; withdrawn

> <GENERIC_NAME>
Candicidin

> <SYNONYMS>
Candicidin; Candicidina; Candicidine; Candicidinum; Candizidin; Levorin; Levorina; Levorine; Levorinum

> <INTERNATIONAL_BRANDS>
Vanobid

$$$$

  Mrv0541 04191212172D          

 24 26  0  0  1  0            999 V2000
   -0.8250    0.8250    0.0000 C   0  0  1  0  0  0  0  0  0  0  0  0
    0.0000    0.0000    0.0000 N   0  0  0  0  0  0  0  0  0  0  0  0
    0.0000    0.8250    0.0000 C   0  0  2  0  0  0  0  0  0  0  0  0
   -0.8250    0.0000    0.0000 C   0  0  0  0  0  0  0  0  0  0  0  0
    0.7846   -0.2549    0.0000 C   0  0  2  0  0  0  0  0  0  0  0  0
    1.2696    0.4125    0.0000 C   0  0  0  0  0  0  0  0  0  0  0  0
    0.7846    1.0800    0.0000 S   0  0  0  0  0  0  0  0  0  0  0  0
    1.9883    0.0076    0.0000 C   0  0  0  0  0  0  0  0  0  0  0  0
    1.9883    0.8175    0.0000 C   0  0  0  0  0  0  0  0  0  0  0  0
   -1.4083   -0.5833    0.0000 O   0  0  0  0  0  0  0  0  0  0  0  0
    1.0396   -1.0395    0.0000 C   0  0  0  0  0  0  0  0  0  0  0  0
    1.8466   -1.2110    0.0000 O   0  0  0  0  0  0  0  0  0  0  0  0
    0.4875   -1.6526    0.0000 O   0  0  0  0  0  0  0  0  0  0  0  0
    0.0000    1.6500    0.0000 H   0  0  0  0  0  0  0  0  0  0  0  0
   -1.5395    1.2375    0.0000 N   0  0  0  0  0  0  0  0  0  0  0  0
   -2.2540    0.8250    0.0000 C   0  0  0  0  0  0  0  0  0  0  0  0
   -2.9684    1.2375    0.0000 N   0  0  0  0  0  0  0  0  0  0  0  0
   -3.6501    0.7728    0.0000 C   0  0  0  0  0  0  0  0  0  0  0  0
   -2.9068    2.0602    0.0000 C   0  0  0  0  0  0  0  0  0  0  0  0
   -3.5116    2.6213    0.0000 C   0  0  0  0  0  0  0  0  0  0  0  0
   -4.4384    1.0159    0.0000 C   0  0  0  0  0  0  0  0  0  0  0  0
   -4.3273    2.4984    0.0000 C   0  0  0  0  0  0  0  0  0  0  0  0
   -4.7398    1.7839    0.0000 C   0  0  0  0  0  0  0  0  0  0  0  0
   -2.2540    0.0000    0.0000 H   0  0  0  0  0  0  0  0  0  0  0  0
  3  1  1  0  0  0  0
  1  4  1  0  0  0  0
  4  2  1  0  0  0  0
  5  2  1  0  0  0  0
  3  2  1  0  0  0  0
  3  7  1  0  0  0  0
 10  4  2  0  0  0  0
  6  5  1  0  0  0  0
  5 11  1  6  0  0  0
  7  6  1  0  0  0  0
  8  6  1  0  0  0  0
  9  6  1  0  0  0  0
 12 11  1  0  0  0  0
 13 11  2  0  0  0  0
  3 14  1  6  0  0  0
  1 15  1  1  0  0  0
 16 15  2  0  0  0  0
 17 16  1  0  0  0  0
 18 17  1  0  0  0  0
 19 17  1  0  0  0  0
 21 18  1  0  0  0  0
 20 19  1  0  0  0  0
 22 20  1  0  0  0  0
 23 21  1  0  0  0  0
 23 22  1  0  0  0  0
 16 24  1  4  0  0  0
M  END
> <DATABASE_ID>
DB01163

> <DATABASE_NAME>
drugbank

> <SMILES>
[H]C(=N[C@@H]1C(=O)N2[C@@H](C(O)=O)C(C)(C)S[C@]12[H])N1CCCCCC1

> <INCHI_IDENTIFIER>
InChI=1S/C15H23N3O3S/c1-15(2)11(14(20)21)18-12(19)10(13(18)22-15)16-9-17-7-5-3-4-6-8-17/h9-11,13H,3-8H2,1-2H3,(H,20,21)/t10-,11+,13-/m1/s1

> <INCHI_KEY>
BWWVAEOLVKTZFQ-NTZNESFSSA-N

> <FORMULA>
C15H23N3O3S

> <MOLECULAR_WEIGHT>
325.426

> <EXACT_MASS>
325.146012307

> <JCHEM_ACCEPTOR_COUNT>
5

> <JCHEM_AVERAGE_POLARIZABILITY>
34.18426189464539

> <JCHEM_BIOAVAILABILITY>
1

> <JCHEM_DONOR_COUNT>
1

> <JCHEM_FORMAL_CHARGE>
0

> <JCHEM_GHOSE_FILTER>
0

> <JCHEM_IUPAC>
(2S,5R,6R)-6-[(azepan-1-ylmethylidene)amino]-3,3-dimethyl-7-oxo-4-thia-1-azabicyclo[3.2.0]heptane-2-carboxylic acid

> <ALOGPS_LOGP>
1.41

> <JCHEM_LOGP>
-0.5483665752800043

> <ALOGPS_LOGS>
-2.52

> <JCHEM_MDDR_LIKE_RULE>
0

> <JCHEM_NUMBER_OF_RINGS>
3

> <JCHEM_PHYSIOLOGICAL_CHARGE>
0

> <JCHEM_PKA>
13.778436422807125

> <JCHEM_PKA_STRONGEST_ACIDIC>
3.302457911641027

> <JCHEM_PKA_STRONGEST_BASIC>
7.915651222614097

> <JCHEM_POLAR_SURFACE_AREA>
73.21

> <JCHEM_REFRACTIVITY>
84.3069

> <JCHEM_ROTATABLE_BOND_COUNT>
2

> <JCHEM_RULE_OF_FIVE>
1

> <ALOGPS_SOLUBILITY>
9.79e-01 g/l

> <JCHEM_TRADITIONAL_IUPAC>
mecillinam

> <JCHEM_VEBER_RULE>
0

> <DRUGBANK_ID>
DB01163

> <SECONDARY_ACCESSION_NUMBERS>
APRD00789

> <DRUG_GROUPS>
investigational; withdrawn

> <GENERIC_NAME>
Amdinocillin

> <SYNONYMS>
Amdinocillin; Mecilinamo; Mecillinam; Mecillinamum; Penicillin HX

> <INTERNATIONAL_BRANDS>
Coactin; Selexid

$$$$
1178
  Mrv0541 02231215182D          

 17 18  0  0  1  0            999 V2000
    1.6500   -1.8563    0.0000 Cl  0  0  0  0  0  0  0  0  0  0  0  0
    5.2224   -0.6188    0.0000 S   0  0  0  0  0  0  0  0  0  0  0  0
    4.8099   -1.3332    0.0000 O   0  0  0  0  0  0  0  0  0  0  0  0
    5.6350   -1.3332    0.0000 O   0  0  0  0  0  0  0  0  0  0  0  0
    5.2224    1.8563    0.0000 O   0  0  0  0  0  0  0  0  0  0  0  0
    4.5080    0.6188    0.0000 N   0  0  0  0  0  0  0  0  0  0  0  0
    4.5080   -0.2063    0.0000 C   0  0  0  0  0  0  0  0  0  0  0  0
    5.9370   -0.2063    0.0000 C   0  0  0  0  0  0  0  0  0  0  0  0
    5.9370    0.6188    0.0000 C   0  0  0  0  0  0  0  0  0  0  0  0
    3.7935   -0.6188    0.0000 C   0  0  0  0  0  0  0  0  0  0  0  0
    5.2224    1.0313    0.0000 C   0  0  0  0  0  0  0  0  0  0  0  0
    3.7935    1.0313    0.0000 C   0  0  0  0  0  0  0  0  0  0  0  0
    3.7935   -1.4438    0.0000 C   0  0  0  0  0  0  0  0  0  0  0  0
    3.0791   -0.2063    0.0000 C   0  0  0  0  0  0  0  0  0  0  0  0
    3.0791   -1.8563    0.0000 C   0  0  0  0  0  0  0  0  0  0  0  0
    2.3645   -0.6188    0.0000 C   0  0  0  0  0  0  0  0  0  0  0  0
    2.3645   -1.4438    0.0000 C   0  0  0  0  0  0  0  0  0  0  0  0
  1 17  1  0  0  0  0
  2  3  2  0  0  0  0
  2  4  2  0  0  0  0
  2  7  1  0  0  0  0
  2  8  1  0  0  0  0
  5 11  2  0  0  0  0
  6  7  1  0  0  0  0
  6 11  1  0  0  0  0
  6 12  1  0  0  0  0
  7 10  1  0  0  0  0
  8  9  1  0  0  0  0
  9 11  1  0  0  0  0
 10 13  2  0  0  0  0
 10 14  1  0  0  0  0
 13 15  1  0  0  0  0
 14 16  2  0  0  0  0
 15 17  2  0  0  0  0
 16 17  1  0  0  0  0
M  END
> <DATABASE_ID>
DB01178

> <DATABASE_NAME>
drugbank

> <SMILES>
CN1C(C2=CC=C(Cl)C=C2)S(=O)(=O)CCC1=O

> <INCHI_IDENTIFIER>
InChI=1S/C11H12ClNO3S/c1-13-10(14)6-7-17(15,16)11(13)8-2-4-9(12)5-3-8/h2-5,11H,6-7H2,1H3

> <INCHI_KEY>
WEQAYVWKMWHEJO-UHFFFAOYSA-N

> <FORMULA>
C11H12ClNO3S

> <MOLECULAR_WEIGHT>
273.736

> <EXACT_MASS>
273.022641652

> <JCHEM_ACCEPTOR_COUNT>
3

> <JCHEM_AVERAGE_POLARIZABILITY>
25.893445086323045

> <JCHEM_BIOAVAILABILITY>
1

> <JCHEM_DONOR_COUNT>
0

> <JCHEM_FORMAL_CHARGE>
0

> <JCHEM_GHOSE_FILTER>
1

> <JCHEM_IUPAC>
2-(4-chlorophenyl)-3-methyl-1λ⁶,3-thiazinane-1,1,4-trione

> <ALOGPS_LOGP>
0.84

> <JCHEM_LOGP>
0.9171674296666675

> <ALOGPS_LOGS>
-2.23

> <JCHEM_MDDR_LIKE_RULE>
0

> <JCHEM_NUMBER_OF_RINGS>
2

> <JCHEM_PHYSIOLOGICAL_CHARGE>
0

> <JCHEM_PKA_STRONGEST_ACIDIC>
19.072128640163584

> <JCHEM_PKA_STRONGEST_BASIC>
-2.471632039008525

> <JCHEM_POLAR_SURFACE_AREA>
54.45

> <JCHEM_REFRACTIVITY>
64.88000000000001

> <JCHEM_ROTATABLE_BOND_COUNT>
1

> <JCHEM_RULE_OF_FIVE>
1

> <ALOGPS_SOLUBILITY>
1.61e+00 g/l

> <JCHEM_TRADITIONAL_IUPAC>
muskel

> <JCHEM_VEBER_RULE>
0

> <DRUGBANK_ID>
DB01178

> <SECONDARY_ACCESSION_NUMBERS>
APRD00865

> <DRUG_GROUPS>
approved; investigational; withdrawn

> <GENERIC_NAME>
Chlormezanone

> <SYNONYMS>
(±)-chlormezanone; 2-(p-chlorophenyl)tetrahydro-3-methyl-4H-1,3-thiazin-4-one 1,1-dioxide; 2-(p-chlorphenyl)-3-methyl-1,3-perhydrothiazin-4-on-1,1-dioxide; Chlormethazanone; Chlormezanona; Chlormézanone; Chlormezanone; Chlormezanonum; Clormezanona

> <INTERNATIONAL_BRANDS>
Fenaprim; Trancopal

$$$$
1186
  Mrv0541 02231215182D          

 24 27  0  0  1  0            999 V2000
    2.3661    2.3349    0.0000 S   0  0  0  0  0  0  0  0  0  0  0  0
    4.5705    1.0944    0.0000 N   0  0  0  0  0  0  0  0  0  0  0  0
    5.5455   -2.3016    0.0000 N   0  0  0  0  0  0  0  0  0  0  0  0
    3.8428   -0.1774    0.0000 C   0  0  2  0  0  0  0  0  0  0  0  0
    4.5572    0.2351    0.0000 C   0  0  1  0  0  0  0  0  0  0  0  0
    3.0920    0.2408    0.0000 C   0  0  0  0  0  0  0  0  0  0  0  0
    3.0853    1.1002    0.0000 C   0  0  2  0  0  0  0  0  0  0  0  0
    3.8296    1.5298    0.0000 C   0  0  0  0  0  0  0  0  0  0  0  0
    5.2717   -0.1774    0.0000 C   0  0  0  0  0  0  0  0  0  0  0  0
    3.8428   -1.0024    0.0000 C   0  0  0  0  0  0  0  0  0  0  0  0
    5.2717   -1.0024    0.0000 C   0  0  0  0  0  0  0  0  0  0  0  0
    4.5572   -1.4149    0.0000 C   0  0  0  0  0  0  0  0  0  0  0  0
    5.2897    1.4986    0.0000 C   0  0  0  0  0  0  0  0  0  0  0  0
    2.3693    1.5099    0.0000 C   0  0  0  0  0  0  0  0  0  0  0  0
    4.5705   -2.2742    0.0000 C   0  0  0  0  0  0  0  0  0  0  0  0
    3.0920   -1.4205    0.0000 C   0  0  0  0  0  0  0  0  0  0  0  0
    5.8797   -1.5528    0.0000 C   0  0  0  0  0  0  0  0  0  0  0  0
    5.2993    2.3236    0.0000 C   0  0  0  0  0  0  0  0  0  0  0  0
    3.8296   -2.7095    0.0000 C   0  0  0  0  0  0  0  0  0  0  0  0
    3.0853   -2.2799    0.0000 C   0  0  0  0  0  0  0  0  0  0  0  0
    6.0184    2.7278    0.0000 C   0  0  0  0  0  0  0  0  0  0  0  0
    1.6500    2.7447    0.0000 C   0  0  0  0  0  0  0  0  0  0  0  0
    3.2738   -0.5118    0.0000 H   0  0  0  0  0  0  0  0  0  0  0  0
    5.1314    0.5608    0.0000 H   0  0  0  0  0  0  0  0  0  0  0  0
  1 14  1  0  0  0  0
  1 22  1  0  0  0  0
  2  5  1  0  0  0  0
  2  8  1  0  0  0  0
  2 13  1  0  0  0  0
  3 15  1  0  0  0  0
  3 17  1  0  0  0  0
  4  5  1  0  0  0  0
  4  6  1  0  0  0  0
  4 10  1  0  0  0  0
  4 23  1  6  0  0  0
  5  9  1  0  0  0  0
  5 24  1  1  0  0  0
  6  7  1  0  0  0  0
  7  8  1  0  0  0  0
  7 14  1  1  0  0  0
  9 11  1  0  0  0  0
 10 12  2  0  0  0  0
 10 16  1  0  0  0  0
 11 12  1  0  0  0  0
 11 17  2  0  0  0  0
 12 15  1  0  0  0  0
 13 18  1  0  0  0  0
 15 19  2  0  0  0  0
 16 20  2  0  0  0  0
 18 21  1  0  0  0  0
 19 20  1  0  0  0  0
M  END
> <DATABASE_ID>
DB01186

> <DATABASE_NAME>
drugbank

> <SMILES>
[H][C@@]12CC3=CNC4=CC=CC(=C34)[C@@]1([H])C[C@@H](CSC)CN2CCC

> <INCHI_IDENTIFIER>
InChI=1S/C19H26N2S/c1-3-7-21-11-13(12-22-2)8-16-15-5-4-6-17-19(15)14(10-20-17)9-18(16)21/h4-6,10,13,16,18,20H,3,7-9,11-12H2,1-2H3/t13-,16-,18-/m1/s1

> <INCHI_KEY>
YEHCICAEULNIGD-MZMPZRCHSA-N

> <FORMULA>
C19H26N2S

> <MOLECULAR_WEIGHT>
314.488

> <EXACT_MASS>
314.181669532

> <JCHEM_ACCEPTOR_COUNT>
1

> <JCHEM_AVERAGE_POLARIZABILITY>
38.398018696635305

> <JCHEM_BIOAVAILABILITY>
1

> <JCHEM_DONOR_COUNT>
1

> <JCHEM_FORMAL_CHARGE>
0

> <JCHEM_GHOSE_FILTER>
1

> <JCHEM_IUPAC>
(2R,4R,7R)-4-[(methylsulfanyl)methyl]-6-propyl-6,11-diazatetracyclo[7.6.1.0²,⁷.0¹²,¹⁶]hexadeca-1(16),9,12,14-tetraene

> <ALOGPS_LOGP>
4.17

> <JCHEM_LOGP>
4.225289858

> <ALOGPS_LOGS>
-5.73

> <JCHEM_MDDR_LIKE_RULE>
0

> <JCHEM_NUMBER_OF_RINGS>
4

> <JCHEM_PHYSIOLOGICAL_CHARGE>
1

> <JCHEM_PKA_STRONGEST_ACIDIC>
17.350344088893937

> <JCHEM_PKA_STRONGEST_BASIC>
9.486434456169016

> <JCHEM_POLAR_SURFACE_AREA>
19.03

> <JCHEM_REFRACTIVITY>
97.0167

> <JCHEM_ROTATABLE_BOND_COUNT>
4

> <JCHEM_RULE_OF_FIVE>
1

> <ALOGPS_SOLUBILITY>
5.84e-04 g/l

> <JCHEM_TRADITIONAL_IUPAC>
pergolide

> <JCHEM_VEBER_RULE>
1

> <DRUGBANK_ID>
DB01186

> <SECONDARY_ACCESSION_NUMBERS>
APRD00663

> <DRUG_GROUPS>
approved; investigational; vet_approved; withdrawn

> <GENERIC_NAME>
Pergolide

> <SYNONYMS>
Pergolida; Pergolide; Pergolidum

> <PRODUCTS>
Pergolide Mesylate; Permax; Permax Tab 0.05mg; Permax Tab 0.25mg; Permax Tab 1mg

> <SALTS>
Pergolide mesylate

$$$$

  Mrv0541 04191212172D          

 16 16  0  0  1  0            999 V2000
    4.1890   -6.4628    0.0000 C   0  0  0  0  0  0  0  0  0  0  0  0
    4.9035   -6.0503    0.0000 C   0  0  0  0  0  0  0  0  0  0  0  0
    5.6179   -6.4628    0.0000 C   0  0  0  0  0  0  0  0  0  0  0  0
    6.3324   -6.0503    0.0000 C   0  0  0  0  0  0  0  0  0  0  0  0
    4.1890   -7.2879    0.0000 F   0  0  0  0  0  0  0  0  0  0  0  0
    3.4745   -6.0503    0.0000 F   0  0  0  0  0  0  0  0  0  0  0  0
    7.0469   -6.4628    0.0000 C   0  0  0  0  0  0  0  0  0  0  0  0
    7.7614   -5.2253    0.0000 N   0  0  0  0  0  0  0  0  0  0  0  0
    4.9035   -5.2253    0.0000 C   0  0  0  0  0  0  0  0  0  0  0  0
    7.7614   -6.0503    0.0000 C   0  0  1  0  0  0  0  0  0  0  0  0
    5.6179   -4.8128    0.0000 C   0  0  0  0  0  0  0  0  0  0  0  0
    6.3324   -5.2253    0.0000 C   0  0  0  0  0  0  0  0  0  0  0  0
    8.4759   -6.4628    0.0000 C   0  0  0  0  0  0  0  0  0  0  0  0
    3.4690   -6.8822    0.0000 F   0  0  0  0  0  0  0  0  0  0  0  0
    7.0469   -4.8128    0.0000 C   0  0  0  0  0  0  0  0  0  0  0  0
    7.0469   -3.9878    0.0000 C   0  0  0  0  0  0  0  0  0  0  0  0
  2  1  1  0  0  0  0
  5  1  1  0  0  0  0
  6  1  1  0  0  0  0
  3  2  2  0  0  0  0
  9  2  1  0  0  0  0
  4  3  1  0  0  0  0
  7  4  1  0  0  0  0
 12  4  2  0  0  0  0
 10  7  1  0  0  0  0
 10  8  1  1  0  0  0
 11  9  2  0  0  0  0
 13 10  1  0  0  0  0
 12 11  1  0  0  0  0
  1 14  1  0  0  0  0
  8 15  1  0  0  0  0
 15 16  1  0  0  0  0
M  END
> <DATABASE_ID>
DB01191

> <DATABASE_NAME>
drugbank

> <SMILES>
CCN[C@@H](C)CC1=CC=CC(=C1)C(F)(F)F

> <INCHI_IDENTIFIER>
InChI=1S/C12H16F3N/c1-3-16-9(2)7-10-5-4-6-11(8-10)12(13,14)15/h4-6,8-9,16H,3,7H2,1-2H3/t9-/m0/s1

> <INCHI_KEY>
DBGIVFWFUFKIQN-VIFPVBQESA-N

> <FORMULA>
C12H16F3N

> <MOLECULAR_WEIGHT>
231.2573

> <EXACT_MASS>
231.123484132

> <JCHEM_ACCEPTOR_COUNT>
1

> <JCHEM_AVERAGE_POLARIZABILITY>
22.68515765531197

> <JCHEM_BIOAVAILABILITY>
1

> <JCHEM_DONOR_COUNT>
1

> <JCHEM_FORMAL_CHARGE>
0

> <JCHEM_GHOSE_FILTER>
1

> <JCHEM_IUPAC>
ethyl[(2S)-1-[3-(trifluoromethyl)phenyl]propan-2-yl]amine

> <ALOGPS_LOGP>
3.30

> <JCHEM_LOGP>
3.4714873116666665

> <ALOGPS_LOGS>
-4.03

> <JCHEM_MDDR_LIKE_RULE>
0

> <JCHEM_NUMBER_OF_RINGS>
1

> <JCHEM_PHYSIOLOGICAL_CHARGE>
1

> <JCHEM_PKA_STRONGEST_BASIC>
10.215413995825989

> <JCHEM_POLAR_SURFACE_AREA>
12.03

> <JCHEM_REFRACTIVITY>
59.2021

> <JCHEM_ROTATABLE_BOND_COUNT>
5

> <JCHEM_RULE_OF_FIVE>
1

> <ALOGPS_SOLUBILITY>
2.15e-02 g/l

> <JCHEM_TRADITIONAL_IUPAC>
dexfenfluramine

> <JCHEM_VEBER_RULE>
1

> <DRUGBANK_ID>
DB01191

> <SECONDARY_ACCESSION_NUMBERS>
APRD00648

> <DRUG_GROUPS>
approved; illicit; investigational; withdrawn

> <GENERIC_NAME>
Dexfenfluramine

> <SYNONYMS>
(+)-fenfluramine; (S)-fenfluramine; (S)-N-ethyl-1-[3-(trifluoromethyl)phenyl]propan-2-amine; d-N-ethyl-α-methyl-m-trifluoromethylphenethylamine; Dexfenfluramina; Dexfenfluramine; Dexfenfluraminum; Dextrofenfluramine

> <INTERNATIONAL_BRANDS>
Adifax; Redux

$$$$
1195
  Mrv0541 02231215192D          

 28 29  0  0  1  0            999 V2000
    1.9520   -0.7697    0.0000 F   0  0  0  0  0  0  0  0  0  0  0  0
    1.6500    0.3572    0.0000 F   0  0  0  0  0  0  0  0  0  0  0  0
    2.7770    0.6592    0.0000 F   0  0  0  0  0  0  0  0  0  0  0  0
    8.0804   -3.3553    0.0000 F   0  0  0  0  0  0  0  0  0  0  0  0
    6.9534   -3.6573    0.0000 F   0  0  0  0  0  0  0  0  0  0  0  0
    7.7784   -2.2284    0.0000 F   0  0  0  0  0  0  0  0  0  0  0  0
    4.5080    1.1823    0.0000 O   0  0  0  0  0  0  0  0  0  0  0  0
    3.7935   -0.0553    0.0000 O   0  0  0  0  0  0  0  0  0  0  0  0
    6.6515   -1.7053    0.0000 O   0  0  0  0  0  0  0  0  0  0  0  0
    6.6515    3.2448    0.0000 N   0  0  0  0  0  0  0  0  0  0  0  0
    5.9370    1.1823    0.0000 N   0  0  0  0  0  0  0  0  0  0  0  0
    6.6515    2.4198    0.0000 C   0  0  0  0  0  0  0  0  0  0  0  0
    7.3659    2.0073    0.0000 C   0  0  0  0  0  0  0  0  0  0  0  0
    8.0804    2.4198    0.0000 C   0  0  0  0  0  0  0  0  0  0  0  0
    8.0804    3.2448    0.0000 C   0  0  0  0  0  0  0  0  0  0  0  0
    7.3659    3.6573    0.0000 C   0  0  0  0  0  0  0  0  0  0  0  0
    5.9370    2.0073    0.0000 C   0  0  0  0  0  0  0  0  0  0  0  0
    5.2224    0.7697    0.0000 C   0  0  0  0  0  0  0  0  0  0  0  0
    5.2224   -0.0553    0.0000 C   0  0  0  0  0  0  0  0  0  0  0  0
    4.5080   -0.4678    0.0000 C   0  0  0  0  0  0  0  0  0  0  0  0
    5.9370   -0.4678    0.0000 C   0  0  0  0  0  0  0  0  0  0  0  0
    5.9370   -1.2928    0.0000 C   0  0  0  0  0  0  0  0  0  0  0  0
    4.5080   -1.2928    0.0000 C   0  0  0  0  0  0  0  0  0  0  0  0
    5.2224   -1.7053    0.0000 C   0  0  0  0  0  0  0  0  0  0  0  0
    3.0791   -0.4678    0.0000 C   0  0  0  0  0  0  0  0  0  0  0  0
    6.6515   -2.5303    0.0000 C   0  0  0  0  0  0  0  0  0  0  0  0
    2.3645   -0.0553    0.0000 C   0  0  0  0  0  0  0  0  0  0  0  0
    7.3659   -2.9428    0.0000 C   0  0  0  0  0  0  0  0  0  0  0  0
  1 27  1  0  0  0  0
  2 27  1  0  0  0  0
  3 27  1  0  0  0  0
  4 28  1  0  0  0  0
  5 28  1  0  0  0  0
  6 28  1  0  0  0  0
  7 18  2  0  0  0  0
  8 20  1  0  0  0  0
  8 25  1  0  0  0  0
  9 22  1  0  0  0  0
  9 26  1  0  0  0  0
 10 12  1  0  0  0  0
 10 16  1  0  0  0  0
 11 17  1  0  0  0  0
 11 18  1  0  0  0  0
 12 13  1  0  0  0  0
 12 17  1  0  0  0  0
 13 14  1  0  0  0  0
 14 15  1  0  0  0  0
 15 16  1  0  0  0  0
 18 19  1  0  0  0  0
 19 20  2  0  0  0  0
 19 21  1  0  0  0  0
 20 23  1  0  0  0  0
 21 22  2  0  0  0  0
 22 24  1  0  0  0  0
 23 24  2  0  0  0  0
 25 27  1  0  0  0  0
 26 28  1  0  0  0  0
M  END
> <DATABASE_ID>
DB01195

> <DATABASE_NAME>
drugbank

> <SMILES>
FC(F)(F)COC1=CC(C(=O)NCC2CCCCN2)=C(OCC(F)(F)F)C=C1

> <INCHI_IDENTIFIER>
InChI=1S/C17H20F6N2O3/c18-16(19,20)9-27-12-4-5-14(28-10-17(21,22)23)13(7-12)15(26)25-8-11-3-1-2-6-24-11/h4-5,7,11,24H,1-3,6,8-10H2,(H,25,26)

> <INCHI_KEY>
DJBNUMBKLMJRSA-UHFFFAOYSA-N

> <FORMULA>
C17H20F6N2O3

> <MOLECULAR_WEIGHT>
414.3427

> <EXACT_MASS>
414.137811746

> <JCHEM_ACCEPTOR_COUNT>
4

> <JCHEM_AVERAGE_POLARIZABILITY>
35.91568083566059

> <JCHEM_BIOAVAILABILITY>
1

> <JCHEM_DONOR_COUNT>
2

> <JCHEM_FORMAL_CHARGE>
0

> <JCHEM_GHOSE_FILTER>
1

> <JCHEM_IUPAC>
N-(piperidin-2-ylmethyl)-2,5-bis(2,2,2-trifluoroethoxy)benzamide

> <ALOGPS_LOGP>
2.98

> <JCHEM_LOGP>
3.1881419053333335

> <ALOGPS_LOGS>
-4.11

> <JCHEM_MDDR_LIKE_RULE>
0

> <JCHEM_NUMBER_OF_RINGS>
2

> <JCHEM_PHYSIOLOGICAL_CHARGE>
1

> <JCHEM_PKA>
19.557778400329568

> <JCHEM_PKA_STRONGEST_ACIDIC>
13.681351736903963

> <JCHEM_PKA_STRONGEST_BASIC>
9.616620255251357

> <JCHEM_POLAR_SURFACE_AREA>
59.59

> <JCHEM_REFRACTIVITY>
88.39630000000001

> <JCHEM_ROTATABLE_BOND_COUNT>
9

> <JCHEM_RULE_OF_FIVE>
1

> <ALOGPS_SOLUBILITY>
3.24e-02 g/l

> <JCHEM_TRADITIONAL_IUPAC>
flecainide

> <JCHEM_VEBER_RULE>
0

> <DRUGBANK_ID>
DB01195

> <SECONDARY_ACCESSION_NUMBERS>
APRD00129

> <DRUG_GROUPS>
approved; withdrawn

> <GENERIC_NAME>
Flecainide

> <SYNONYMS>
(±)-flecainide; Flecaine; Flecainida; Flecainide; Flécaïnide; Flecainidum; N-(2-Piperidinylmethyl)-2,5-bis(2,2,2-trifluoroethoxy)benzamide

> <PRODUCTS>
Apo-flecainide; Auro-flecainide; Flecainide Acetate; Flecainide acetate; Jamp Flecainide; Mar-flecainide; Tambocor

> <INTERNATIONAL_BRANDS>
Almarytm; Apocard

> <SALTS>
Flecainide acetate

$$$$
1208
  Mrv0541 02231215192D          

 28 31  0  0  1  0            999 V2000
    5.2224   -1.1591    0.0000 F   0  0  0  0  0  0  0  0  0  0  0  0
    3.7935    1.3159    0.0000 F   0  0  0  0  0  0  0  0  0  0  0  0
    6.6649    2.1695    0.0000 O   0  0  0  0  0  0  0  0  0  0  0  0
    8.8509    0.9261    0.0000 O   0  0  0  0  0  0  0  0  0  0  0  0
    8.1317    2.1608    0.0000 O   0  0  0  0  0  0  0  0  0  0  0  0
    6.6745   -0.3628    0.0000 N   0  0  0  0  0  0  0  0  0  0  0  0
    3.7935   -0.3341    0.0000 N   0  0  0  0  0  0  0  0  0  0  0  0
    2.3645   -1.1591    0.0000 N   0  0  0  0  0  0  0  0  0  0  0  0
    5.2224    2.1409    0.0000 N   0  0  0  0  0  0  0  0  0  0  0  0
    6.6649   -1.1877    0.0000 C   0  0  0  0  0  0  0  0  0  0  0  0
    7.0692   -1.9069    0.0000 C   0  0  0  0  0  0  0  0  0  0  0  0
    6.2442   -1.8974    0.0000 C   0  0  0  0  0  0  0  0  0  0  0  0
    5.9370    0.0784    0.0000 C   0  0  0  0  0  0  0  0  0  0  0  0
    3.0790   -1.5717    0.0000 C   0  0  2  0  0  0  0  0  0  0  0  0
    2.3645   -0.3341    0.0000 C   0  0  1  0  0  0  0  0  0  0  0  0
    3.7935   -1.1591    0.0000 C   0  0  0  0  0  0  0  0  0  0  0  0
    3.0790    0.0784    0.0000 C   0  0  0  0  0  0  0  0  0  0  0  0
    4.5080    0.0784    0.0000 C   0  0  0  0  0  0  0  0  0  0  0  0
    7.4220    0.0612    0.0000 C   0  0  0  0  0  0  0  0  0  0  0  0
    5.9370    0.9034    0.0000 C   0  0  0  0  0  0  0  0  0  0  0  0
    5.2224   -0.3341    0.0000 C   0  0  0  0  0  0  0  0  0  0  0  0
    5.2224    1.3159    0.0000 C   0  0  0  0  0  0  0  0  0  0  0  0
    7.4220    0.9206    0.0000 C   0  0  0  0  0  0  0  0  0  0  0  0
    4.5080    0.9034    0.0000 C   0  0  0  0  0  0  0  0  0  0  0  0
    6.6745    1.3445    0.0000 C   0  0  0  0  0  0  0  0  0  0  0  0
    3.0790   -2.3967    0.0000 C   0  0  0  0  0  0  0  0  0  0  0  0
    1.6500    0.0784    0.0000 C   0  0  0  0  0  0  0  0  0  0  0  0
    8.1349    1.3358    0.0000 C   0  0  0  0  0  0  0  0  0  0  0  0
  1 21  1  0  0  0  0
  2 24  1  0  0  0  0
  3 25  2  0  0  0  0
  4 28  1  0  0  0  0
  5 28  2  0  0  0  0
  6 10  1  0  0  0  0
  6 13  1  0  0  0  0
  6 19  1  0  0  0  0
  7 16  1  0  0  0  0
  7 17  1  0  0  0  0
  7 18  1  0  0  0  0
  8 14  1  0  0  0  0
  8 15  1  0  0  0  0
  9 22  1  0  0  0  0
 10 11  1  0  0  0  0
 10 12  1  0  0  0  0
 11 12  1  0  0  0  0
 13 20  1  0  0  0  0
 13 21  2  0  0  0  0
 14 16  1  0  0  0  0
 14 26  1  6  0  0  0
 15 17  1  0  0  0  0
 15 27  1  6  0  0  0
 18 21  1  0  0  0  0
 18 24  2  0  0  0  0
 19 23  2  0  0  0  0
 20 22  2  0  0  0  0
 20 25  1  0  0  0  0
 22 24  1  0  0  0  0
 23 25  1  0  0  0  0
 23 28  1  0  0  0  0
M  END
> <DATABASE_ID>
DB01208

> <DATABASE_NAME>
drugbank

> <SMILES>
C[C@H]1CN(C[C@@H](C)N1)C1=C(F)C(N)=C2C(=O)C(=CN(C3CC3)C2=C1F)C(O)=O

> <INCHI_IDENTIFIER>
InChI=1S/C19H22F2N4O3/c1-8-5-24(6-9(2)23-8)17-13(20)15(22)12-16(14(17)21)25(10-3-4-10)7-11(18(12)26)19(27)28/h7-10,23H,3-6,22H2,1-2H3,(H,27,28)/t8-,9+

> <INCHI_KEY>
DZZWHBIBMUVIIW-DTORHVGOSA-N

> <FORMULA>
C19H22F2N4O3

> <MOLECULAR_WEIGHT>
392.3998

> <EXACT_MASS>
392.165997

> <JCHEM_ACCEPTOR_COUNT>
7

> <JCHEM_AVERAGE_POLARIZABILITY>
38.978715462680256

> <JCHEM_BIOAVAILABILITY>
1

> <JCHEM_DONOR_COUNT>
3

> <JCHEM_FORMAL_CHARGE>
0

> <JCHEM_GHOSE_FILTER>
1

> <JCHEM_IUPAC>
5-amino-1-cyclopropyl-7-[(3R,5S)-3,5-dimethylpiperazin-1-yl]-6,8-difluoro-4-oxo-1,4-dihydroquinoline-3-carboxylic acid

> <ALOGPS_LOGP>
-0.07

> <JCHEM_LOGP>
-0.04322814690873515

> <ALOGPS_LOGS>
-3.54

> <JCHEM_MDDR_LIKE_RULE>
0

> <JCHEM_NUMBER_OF_RINGS>
4

> <JCHEM_PHYSIOLOGICAL_CHARGE>
0

> <JCHEM_PKA>
15.891070633577437

> <JCHEM_PKA_STRONGEST_ACIDIC>
5.753208582916295

> <JCHEM_PKA_STRONGEST_BASIC>
8.791968707803683

> <JCHEM_POLAR_SURFACE_AREA>
98.89999999999999

> <JCHEM_REFRACTIVITY>
101.6938

> <JCHEM_ROTATABLE_BOND_COUNT>
3

> <JCHEM_RULE_OF_FIVE>
1

> <ALOGPS_SOLUBILITY>
1.13e-01 g/l

> <JCHEM_TRADITIONAL_IUPAC>
sparfloxacin

> <JCHEM_VEBER_RULE>
0

> <DRUGBANK_ID>
DB01208

> <SECONDARY_ACCESSION_NUMBERS>
APRD01231

> <DRUG_GROUPS>
approved; investigational; withdrawn

> <GENERIC_NAME>
Sparfloxacin

> <SYNONYMS>
cis-5-Amino-1-cyclopropyl-7-(3,5-dimethyl-1-piperazinyl)-6,8-difluoro-1,4-dihydro-4-oxo-3-quinolinecarboxylic acid

> <INTERNATIONAL_BRANDS>
Zagam

$$$$

  Mrv0541 04191212172D          

 26 28  0  0  0  0            999 V2000
    6.4018   -2.4837    0.0000 C   0  0  0  0  0  0  0  0  0  0  0  0
    7.1061   -2.9103    0.0000 N   0  0  0  0  0  0  0  0  0  0  0  0
    7.0807   -3.7185    0.0000 C   0  0  0  0  0  0  0  0  0  0  0  0
    5.6804   -2.8704    0.0000 C   0  0  0  0  0  0  0  0  0  0  0  0
    6.4035   -1.6380    0.0000 O   0  0  0  0  0  0  0  0  0  0  0  0
    7.7936   -4.1502    0.0000 C   0  0  0  0  0  0  0  0  0  0  0  0
    8.4980   -3.7533    0.0000 C   0  0  0  0  0  0  0  0  0  0  0  0
    5.6719   -3.6889    0.0000 C   0  0  0  0  0  0  0  0  0  0  0  0
    4.9675   -2.4386    0.0000 C   0  0  0  0  0  0  0  0  0  0  0  0
    4.2324   -3.6715    0.0000 C   0  0  0  0  0  0  0  0  0  0  0  0
    4.2546   -2.8305    0.0000 C   0  0  0  0  0  0  0  0  0  0  0  0
    4.9504   -4.0948    0.0000 C   0  0  0  0  0  0  0  0  0  0  0  0
    3.4990   -4.0973    0.0000 O   0  0  0  0  0  0  0  0  0  0  0  0
    6.3762   -4.1154    0.0000 C   0  0  0  0  0  0  0  0  0  0  0  0
    7.7681   -4.9585    0.0000 C   0  0  0  0  0  0  0  0  0  0  0  0
    3.4972   -4.9237    0.0000 C   0  0  0  0  0  0  0  0  0  0  0  0
    6.3337   -4.9326    0.0000 C   0  0  0  0  0  0  0  0  0  0  0  0
    7.0551   -5.3695    0.0000 C   0  0  0  0  0  0  0  0  0  0  0  0
    8.5017   -2.9199    0.0000 C   0  0  0  0  0  0  0  0  0  0  0  0
    9.9239   -2.9001    0.0000 N   0  0  0  0  0  0  0  0  0  0  0  0
    9.2094   -2.5032    0.0000 C   0  0  0  0  0  0  0  0  0  0  0  0
    9.9239   -3.7533    0.0000 C   0  0  0  0  0  0  0  0  0  0  0  0
   10.6349   -2.4834    0.0000 C   0  0  0  0  0  0  0  0  0  0  0  0
    9.2094   -1.6697    0.0000 C   0  0  0  0  0  0  0  0  0  0  0  0
   10.6349   -1.6499    0.0000 C   0  0  0  0  0  0  0  0  0  0  0  0
    9.9106   -1.2530    0.0000 C   0  0  0  0  0  0  0  0  0  0  0  0
  2  1  1  0  0  0  0
  3  2  1  0  0  0  0
  4  1  1  0  0  0  0
  5  1  2  0  0  0  0
  6  3  1  0  0  0  0
  7  6  1  0  0  0  0
  8  4  1  0  0  0  0
  9  4  2  0  0  0  0
 10 11  2  0  0  0  0
 11  9  1  0  0  0  0
 12  8  2  0  0  0  0
 13 10  1  0  0  0  0
 14  3  2  0  0  0  0
 15  6  2  0  0  0  0
 16 13  1  0  0  0  0
 17 14  1  0  0  0  0
 18 17  2  0  0  0  0
 12 10  1  0  0  0  0
 18 15  1  0  0  0  0
  7 19  1  0  0  0  0
 20 21  1  0  0  0  0
 21 19  1  0  0  0  0
 22 20  1  0  0  0  0
 23 20  1  0  0  0  0
 24 21  1  0  0  0  0
 25 26  1  0  0  0  0
 26 24  1  0  0  0  0
 25 23  1  0  0  0  0
M  END
> <DATABASE_ID>
DB01228

> <DATABASE_NAME>
drugbank

> <SMILES>
COC1=CC=C(C=C1)C(=O)NC1=CC=CC=C1CCC1CCCCN1C

> <INCHI_IDENTIFIER>
InChI=1S/C22H28N2O2/c1-24-16-6-5-8-19(24)13-10-17-7-3-4-9-21(17)23-22(25)18-11-14-20(26-2)15-12-18/h3-4,7,9,11-12,14-15,19H,5-6,8,10,13,16H2,1-2H3,(H,23,25)

> <INCHI_KEY>
PJWPNDMDCLXCOM-UHFFFAOYSA-N

> <FORMULA>
C22H28N2O2

> <MOLECULAR_WEIGHT>
352.4699

> <EXACT_MASS>
352.21507815

> <JCHEM_ACCEPTOR_COUNT>
3

> <JCHEM_AVERAGE_POLARIZABILITY>
41.04076399848722

> <JCHEM_BIOAVAILABILITY>
1

> <JCHEM_DONOR_COUNT>
1

> <JCHEM_FORMAL_CHARGE>
0

> <JCHEM_GHOSE_FILTER>
1

> <JCHEM_IUPAC>
4-methoxy-N-{2-[2-(1-methylpiperidin-2-yl)ethyl]phenyl}benzamide

> <ALOGPS_LOGP>
4.29

> <JCHEM_LOGP>
4.492219194666667

> <ALOGPS_LOGS>
-4.94

> <JCHEM_MDDR_LIKE_RULE>
1

> <JCHEM_NUMBER_OF_RINGS>
3

> <JCHEM_PHYSIOLOGICAL_CHARGE>
1

> <JCHEM_PKA_STRONGEST_ACIDIC>
12.370311685885802

> <JCHEM_PKA_STRONGEST_BASIC>
9.483811215211283

> <JCHEM_POLAR_SURFACE_AREA>
41.57

> <JCHEM_REFRACTIVITY>
107.76559999999998

> <JCHEM_ROTATABLE_BOND_COUNT>
6

> <JCHEM_RULE_OF_FIVE>
1

> <ALOGPS_SOLUBILITY>
4.01e-03 g/l

> <JCHEM_TRADITIONAL_IUPAC>
encainide

> <JCHEM_VEBER_RULE>
0

> <DRUGBANK_ID>
DB01228

> <SECONDARY_ACCESSION_NUMBERS>
APRD00613

> <DRUG_GROUPS>
approved; investigational; withdrawn

> <GENERIC_NAME>
Encainide

> <SYNONYMS>
(±)-2'-[2-(1-methyl-2-piperidyl)ethyl]-p-anisanilide; (±)-4-methoxy-N-(2-(2-(1-methyl-2-piperidinyl)ethyl)phenyl)benzamide; 4-methoxy-2'-[2-(1-methyl-2-piperidyl)ethyl]benzanilide; 4-Methoxy-N-{2-[2-(1-methyl-piperidin-2-yl)-ethyl]-phenyl}-benzamide; Encainida; Encainide; Encainidum

> <PRODUCTS>
Enkaid

> <SALTS>
Encainide hydrochloride

$$$$
1230
  Mrv0541 02231215202D          

 13 14  0  0  1  0            999 V2000
    2.3888    0.5203    0.0000 O   0  0  0  0  0  0  0  0  0  0  0  0
    4.5083    0.2653    0.0000 O   0  0  0  0  0  0  0  0  0  0  0  0
    3.4687    1.3049    0.0000 N   0  0  0  0  0  0  0  0  0  0  0  0
    2.1587    1.9724    0.0000 N   0  0  0  0  0  0  0  0  0  0  0  0
    3.0562    0.0354    0.0000 C   0  0  0  0  0  0  0  0  0  0  0  0
    3.0562   -0.7896    0.0000 C   0  0  0  0  0  0  0  0  0  0  0  0
    3.7236    0.5203    0.0000 C   0  0  0  0  0  0  0  0  0  0  0  0
    3.7707   -1.2021    0.0000 C   0  0  0  0  0  0  0  0  0  0  0  0
    2.3417   -1.2021    0.0000 C   0  0  0  0  0  0  0  0  0  0  0  0
    2.6437    1.3049    0.0000 C   0  0  0  0  0  0  0  0  0  0  0  0
    3.7707   -2.0272    0.0000 C   0  0  0  0  0  0  0  0  0  0  0  0
    2.3417   -2.0272    0.0000 C   0  0  0  0  0  0  0  0  0  0  0  0
    3.0562   -2.4397    0.0000 C   0  0  0  0  0  0  0  0  0  0  0  0
  1  5  1  0  0  0  0
  1 10  1  0  0  0  0
  2  7  2  0  0  0  0
  3  7  1  0  0  0  0
  3 10  2  0  0  0  0
  4 10  1  0  0  0  0
  5  6  1  0  0  0  0
  5  7  1  0  0  0  0
  6  8  2  0  0  0  0
  6  9  1  0  0  0  0
  8 11  1  0  0  0  0
  9 12  2  0  0  0  0
 11 13  2  0  0  0  0
 12 13  1  0  0  0  0
M  END
> <DATABASE_ID>
DB01230

> <DATABASE_NAME>
drugbank

> <SMILES>
NC1=NC(=O)C(O1)C1=CC=CC=C1

> <INCHI_IDENTIFIER>
InChI=1S/C9H8N2O2/c10-9-11-8(12)7(13-9)6-4-2-1-3-5-6/h1-5,7H,(H2,10,11,12)

> <INCHI_KEY>
NRNCYVBFPDDJNE-UHFFFAOYSA-N

> <FORMULA>
C9H8N2O2

> <MOLECULAR_WEIGHT>
176.172

> <EXACT_MASS>
176.05857751

> <JCHEM_ACCEPTOR_COUNT>
4

> <JCHEM_AVERAGE_POLARIZABILITY>
17.040561196005214

> <JCHEM_BIOAVAILABILITY>
1

> <JCHEM_DONOR_COUNT>
1

> <JCHEM_FORMAL_CHARGE>
0

> <JCHEM_GHOSE_FILTER>
1

> <JCHEM_IUPAC>
2-amino-5-phenyl-4,5-dihydro-1,3-oxazol-4-one

> <ALOGPS_LOGP>
0.52

> <JCHEM_LOGP>
0.800027732

> <ALOGPS_LOGS>
-2.26

> <JCHEM_MDDR_LIKE_RULE>
0

> <JCHEM_NUMBER_OF_RINGS>
2

> <JCHEM_PHYSIOLOGICAL_CHARGE>
0

> <JCHEM_PKA_STRONGEST_ACIDIC>
14.953646792407326

> <JCHEM_PKA_STRONGEST_BASIC>
0.9878962542048974

> <JCHEM_POLAR_SURFACE_AREA>
64.67999999999999

> <JCHEM_REFRACTIVITY>
45.70230000000001

> <JCHEM_ROTATABLE_BOND_COUNT>
1

> <JCHEM_RULE_OF_FIVE>
1

> <ALOGPS_SOLUBILITY>
9.79e-01 g/l

> <JCHEM_TRADITIONAL_IUPAC>
pemoline

> <JCHEM_VEBER_RULE>
0

> <DRUGBANK_ID>
DB01230

> <SECONDARY_ACCESSION_NUMBERS>
APRD01169

> <DRUG_GROUPS>
approved; illicit; investigational; withdrawn

> <GENERIC_NAME>
Pemoline

> <SYNONYMS>
pemolina; Pemoline

> <PRODUCTS>
Cylert

> <INTERNATIONAL_BRANDS>
Betanamin; Ceractiv; Tradon

$$$$
1231
  Mrv0541 02231215202D          

 23 25  0  0  0  0            999 V2000
    1.9058    0.1915    0.0000 O   0  0  0  0  0  0  0  0  0  0  0  0
    5.2059   -1.2375    0.0000 N   0  0  0  0  0  0  0  0  0  0  0  0
    6.0309   -1.2375    0.0000 C   0  0  0  0  0  0  0  0  0  0  0  0
    4.7934   -1.9520    0.0000 C   0  0  0  0  0  0  0  0  0  0  0  0
    4.7934   -0.5231    0.0000 C   0  0  0  0  0  0  0  0  0  0  0  0
    6.4434   -1.9520    0.0000 C   0  0  0  0  0  0  0  0  0  0  0  0
    5.2059   -2.6665    0.0000 C   0  0  0  0  0  0  0  0  0  0  0  0
    6.0309   -2.6665    0.0000 C   0  0  0  0  0  0  0  0  0  0  0  0
    3.9683   -0.5231    0.0000 C   0  0  0  0  0  0  0  0  0  0  0  0
    3.5558    0.1915    0.0000 C   0  0  0  0  0  0  0  0  0  0  0  0
    2.7308    0.1915    0.0000 C   0  0  0  0  0  0  0  0  0  0  0  0
    2.7308    1.0165    0.0000 C   0  0  0  0  0  0  0  0  0  0  0  0
    2.7308   -0.6335    0.0000 C   0  0  0  0  0  0  0  0  0  0  0  0
    2.0163    1.4290    0.0000 C   0  0  0  0  0  0  0  0  0  0  0  0
    3.4453   -1.0460    0.0000 C   0  0  0  0  0  0  0  0  0  0  0  0
    3.4453    1.4290    0.0000 C   0  0  0  0  0  0  0  0  0  0  0  0
    2.0163   -1.0460    0.0000 C   0  0  0  0  0  0  0  0  0  0  0  0
    2.0163    2.2540    0.0000 C   0  0  0  0  0  0  0  0  0  0  0  0
    3.4453   -1.8711    0.0000 C   0  0  0  0  0  0  0  0  0  0  0  0
    3.4453    2.2540    0.0000 C   0  0  0  0  0  0  0  0  0  0  0  0
    2.0163   -1.8711    0.0000 C   0  0  0  0  0  0  0  0  0  0  0  0
    2.7308    2.6665    0.0000 C   0  0  0  0  0  0  0  0  0  0  0  0
    2.7308   -2.2836    0.0000 C   0  0  0  0  0  0  0  0  0  0  0  0
  1 11  1  0  0  0  0
  2  3  1  0  0  0  0
  2  4  1  0  0  0  0
  2  5  1  0  0  0  0
  3  6  1  0  0  0  0
  4  7  1  0  0  0  0
  5  9  1  0  0  0  0
  6  8  1  0  0  0  0
  7  8  1  0  0  0  0
  9 10  1  0  0  0  0
 10 11  1  0  0  0  0
 11 12  1  0  0  0  0
 11 13  1  0  0  0  0
 12 14  2  0  0  0  0
 12 16  1  0  0  0  0
 13 15  2  0  0  0  0
 13 17  1  0  0  0  0
 14 18  1  0  0  0  0
 15 19  1  0  0  0  0
 16 20  2  0  0  0  0
 17 21  2  0  0  0  0
 18 22  2  0  0  0  0
 19 23  2  0  0  0  0
 20 22  1  0  0  0  0
 21 23  1  0  0  0  0
M  END
> <DATABASE_ID>
DB01231

> <DATABASE_NAME>
drugbank

> <SMILES>
OC(CCCN1CCCCC1)(C1=CC=CC=C1)C1=CC=CC=C1

> <INCHI_IDENTIFIER>
InChI=1S/C21H27NO/c23-21(19-11-4-1-5-12-19,20-13-6-2-7-14-20)15-10-18-22-16-8-3-9-17-22/h1-2,4-7,11-14,23H,3,8-10,15-18H2

> <INCHI_KEY>
OGAKLTJNUQRZJU-UHFFFAOYSA-N

> <FORMULA>
C21H27NO

> <MOLECULAR_WEIGHT>
309.4452

> <EXACT_MASS>
309.209264491

> <JCHEM_ACCEPTOR_COUNT>
2

> <JCHEM_AVERAGE_POLARIZABILITY>
36.66024370405669

> <JCHEM_BIOAVAILABILITY>
1

> <JCHEM_DONOR_COUNT>
1

> <JCHEM_FORMAL_CHARGE>
0

> <JCHEM_GHOSE_FILTER>
1

> <JCHEM_IUPAC>
1,1-diphenyl-4-(piperidin-1-yl)butan-1-ol

> <ALOGPS_LOGP>
4.08

> <JCHEM_LOGP>
4.221518408333333

> <ALOGPS_LOGS>
-4.72

> <JCHEM_MDDR_LIKE_RULE>
1

> <JCHEM_NUMBER_OF_RINGS>
3

> <JCHEM_PHYSIOLOGICAL_CHARGE>
1

> <JCHEM_PKA_STRONGEST_ACIDIC>
13.398821031355268

> <JCHEM_PKA_STRONGEST_BASIC>
9.233466452494154

> <JCHEM_POLAR_SURFACE_AREA>
23.47

> <JCHEM_REFRACTIVITY>
96.91840000000003

> <JCHEM_ROTATABLE_BOND_COUNT>
6

> <JCHEM_RULE_OF_FIVE>
1

> <ALOGPS_SOLUBILITY>
5.87e-03 g/l

> <JCHEM_TRADITIONAL_IUPAC>
diphenidol

> <JCHEM_VEBER_RULE>
1

> <DRUGBANK_ID>
DB01231

> <SECONDARY_ACCESSION_NUMBERS>
APRD00929

> <DRUG_GROUPS>
approved; investigational; withdrawn

> <GENERIC_NAME>
Diphenidol

> <SYNONYMS>
alpha,alpha-Diphenyl-1-piperidinebutanol; Difenidol; Difénidol; Difenidolo; Difenidolum; Diphenidol; Diphenyl(3-(1-piperidyl)propyl)carbinol

> <PRODUCTS>
Vontrol

> <INTERNATIONAL_BRANDS>
Satanolon; Verterge; Yesdol

> <SALTS>
Diphenidol hydrochloride

$$$$

  Mrv1909 05281916032D          

 21 23  0  0  0  0            999 V2000
   -1.0717    2.4750    0.0000 C   0  0  0  0  0  0  0  0  0  0  0  0
   -1.0717    1.6500    0.0000 N   0  0  0  0  0  0  0  0  0  0  0  0
   -1.7861    1.2375    0.0000 C   0  0  0  0  0  0  0  0  0  0  0  0
   -0.3572    1.2375    0.0000 C   0  0  0  0  0  0  0  0  0  0  0  0
   -0.3572    0.4125    0.0000 C   0  0  0  0  0  0  0  0  0  0  0  0
    0.3572    0.0000    0.0000 C   0  0  0  0  0  0  0  0  0  0  0  0
    0.3572   -0.8250    0.0000 C   0  0  0  0  0  0  0  0  0  0  0  0
    1.0717   -1.2375    0.0000 C   0  0  0  0  0  0  0  0  0  0  0  0
    1.7861   -0.8250    0.0000 C   0  0  0  0  0  0  0  0  0  0  0  0
    2.5006   -1.2375    0.0000 C   0  0  0  0  0  0  0  0  0  0  0  0
    2.5006   -2.0625    0.0000 C   0  0  0  0  0  0  0  0  0  0  0  0
    1.7861   -2.4750    0.0000 C   0  0  0  0  0  0  0  0  0  0  0  0
    1.0717   -2.0625    0.0000 C   0  0  0  0  0  0  0  0  0  0  0  0
    0.3572   -2.4750    0.0000 S   0  0  0  0  0  0  0  0  0  0  0  0
   -0.3572   -2.0625    0.0000 C   0  0  0  0  0  0  0  0  0  0  0  0
   -1.0717   -2.4750    0.0000 C   0  0  0  0  0  0  0  0  0  0  0  0
   -1.7861   -2.0625    0.0000 C   0  0  0  0  0  0  0  0  0  0  0  0
   -1.7861   -1.2375    0.0000 C   0  0  0  0  0  0  0  0  0  0  0  0
   -2.5006   -0.8250    0.0000 Cl  0  0  0  0  0  0  0  0  0  0  0  0
   -1.0717   -0.8250    0.0000 C   0  0  0  0  0  0  0  0  0  0  0  0
   -0.3572   -1.2375    0.0000 C   0  0  0  0  0  0  0  0  0  0  0  0
  1  2  1  0  0  0  0
  2  3  1  0  0  0  0
  2  4  1  0  0  0  0
  4  5  1  0  0  0  0
  5  6  1  0  0  0  0
  6  7  2  0  0  0  0
  7  8  1  0  0  0  0
  8  9  2  0  0  0  0
  9 10  1  0  0  0  0
 10 11  2  0  0  0  0
 11 12  1  0  0  0  0
 12 13  2  0  0  0  0
  8 13  1  0  0  0  0
 13 14  1  0  0  0  0
 14 15  1  0  0  0  0
 15 16  2  0  0  0  0
 16 17  1  0  0  0  0
 17 18  2  0  0  0  0
 18 19  1  0  0  0  0
 18 20  1  0  0  0  0
 20 21  2  0  0  0  0
  7 21  1  0  0  0  0
 15 21  1  0  0  0  0
M  END
> <DATABASE_ID>
DB01239

> <DATABASE_NAME>
drugbank

> <SMILES>
CN(C)CC\C=C1\C2=CC=CC=C2SC2=CC=C(Cl)C=C12

> <INCHI_IDENTIFIER>
InChI=1S/C18H18ClNS/c1-20(2)11-5-7-14-15-6-3-4-8-17(15)21-18-10-9-13(19)12-16(14)18/h3-4,6-10,12H,5,11H2,1-2H3/b14-7-

> <INCHI_KEY>
WSPOMRSOLSGNFJ-AUWJEWJLSA-N

> <FORMULA>
C18H18ClNS

> <MOLECULAR_WEIGHT>
315.86

> <EXACT_MASS>
315.0848485

> <JCHEM_ACCEPTOR_COUNT>
1

> <JCHEM_ATOM_COUNT>
39

> <JCHEM_AVERAGE_POLARIZABILITY>
35.77120298602418

> <JCHEM_BIOAVAILABILITY>
1

> <JCHEM_DONOR_COUNT>
0

> <JCHEM_FORMAL_CHARGE>
0

> <JCHEM_GHOSE_FILTER>
1

> <JCHEM_IUPAC>
{3-[(9Z)-2-chloro-9H-thioxanthen-9-ylidene]propyl}dimethylamine

> <ALOGPS_LOGP>
5.42

> <JCHEM_LOGP>
5.065966363

> <ALOGPS_LOGS>
-5.94

> <JCHEM_MDDR_LIKE_RULE>
0

> <JCHEM_NUMBER_OF_RINGS>
3

> <JCHEM_PHYSIOLOGICAL_CHARGE>
1

> <JCHEM_PKA_STRONGEST_BASIC>
9.760738430992246

> <JCHEM_POLAR_SURFACE_AREA>
3.24

> <JCHEM_REFRACTIVITY>
104.65789999999998

> <JCHEM_ROTATABLE_BOND_COUNT>
3

> <JCHEM_RULE_OF_FIVE>
0

> <ALOGPS_SOLUBILITY>
3.66e-04 g/l

> <JCHEM_TRADITIONAL_IUPAC>
chlorprothixene

> <JCHEM_VEBER_RULE>
1

> <DRUGBANK_ID>
DB01239

> <SECONDARY_ACCESSION_NUMBERS>
APRD00718

> <DRUG_GROUPS>
approved; experimental; investigational; withdrawn

> <GENERIC_NAME>
Chlorprothixene

> <SYNONYMS>
Alpha-Chlorprothixene; Chlorprothixen; Chlorprothixene; Chlorprothixine; Chlorprotixen; Chlorprotixene; Chlorprotixine; Chlothixen

> <INTERNATIONAL_BRANDS>
Clothixen; Cloxan; Taractan

> <SALTS>
Chlorprothixene hydrochloride

$$$$
1244
  Mrv0541 02231215212D          

 27 29  0  0  1  0            999 V2000
    5.2224   -1.0313    0.0000 O   0  0  0  0  0  0  0  0  0  0  0  0
    5.2224    0.6188    0.0000 N   0  0  0  0  0  0  0  0  0  0  0  0
    3.0791    0.2063    0.0000 N   0  0  0  0  0  0  0  0  0  0  0  0
    4.5080    0.2063    0.0000 C   0  0  0  0  0  0  0  0  0  0  0  0
    5.3087    1.4392    0.0000 C   0  0  0  0  0  0  0  0  0  0  0  0
    5.9762    0.2832    0.0000 C   0  0  0  0  0  0  0  0  0  0  0  0
    6.1157    1.6108    0.0000 C   0  0  0  0  0  0  0  0  0  0  0  0
    6.5282    0.8963    0.0000 C   0  0  0  0  0  0  0  0  0  0  0  0
    3.7935    0.6188    0.0000 C   0  0  0  0  0  0  0  0  0  0  0  0
    4.5080   -0.6188    0.0000 C   0  0  0  0  0  0  0  0  0  0  0  0
    2.3645    0.6188    0.0000 C   0  0  0  0  0  0  0  0  0  0  0  0
    3.0791   -0.6188    0.0000 C   0  0  0  0  0  0  0  0  0  0  0  0
    5.2224   -1.8563    0.0000 C   0  0  0  0  0  0  0  0  0  0  0  0
    5.9370   -2.2688    0.0000 C   0  0  0  0  0  0  0  0  0  0  0  0
    2.3645    1.4438    0.0000 C   0  0  0  0  0  0  0  0  0  0  0  0
    3.7935   -1.0313    0.0000 C   0  0  0  0  0  0  0  0  0  0  0  0
    2.3645   -1.0313    0.0000 C   0  0  0  0  0  0  0  0  0  0  0  0
    5.9370   -3.0938    0.0000 C   0  0  0  0  0  0  0  0  0  0  0  0
    6.6515   -1.8563    0.0000 C   0  0  0  0  0  0  0  0  0  0  0  0
    1.6500    1.8563    0.0000 C   0  0  0  0  0  0  0  0  0  0  0  0
    3.0791    1.8563    0.0000 C   0  0  0  0  0  0  0  0  0  0  0  0
    3.7935   -1.8563    0.0000 C   0  0  0  0  0  0  0  0  0  0  0  0
    2.3645   -1.8563    0.0000 C   0  0  0  0  0  0  0  0  0  0  0  0
    3.0791   -2.2688    0.0000 C   0  0  0  0  0  0  0  0  0  0  0  0
    1.6500    2.6813    0.0000 C   0  0  0  0  0  0  0  0  0  0  0  0
    3.0791    2.6813    0.0000 C   0  0  0  0  0  0  0  0  0  0  0  0
    2.3645    3.0938    0.0000 C   0  0  0  0  0  0  0  0  0  0  0  0
  1 10  1  0  0  0  0
  1 13  1  0  0  0  0
  2  4  1  0  0  0  0
  2  5  1  0  0  0  0
  2  6  1  0  0  0  0
  3  9  1  0  0  0  0
  3 11  1  0  0  0  0
  3 12  1  0  0  0  0
  4  9  1  0  0  0  0
  4 10  1  0  0  0  0
  5  7  1  0  0  0  0
  6  8  1  0  0  0  0
  7  8  1  0  0  0  0
 11 15  1  0  0  0  0
 12 16  2  0  0  0  0
 12 17  1  0  0  0  0
 13 14  1  0  0  0  0
 14 18  1  0  0  0  0
 14 19  1  0  0  0  0
 15 20  2  0  0  0  0
 15 21  1  0  0  0  0
 16 22  1  0  0  0  0
 17 23  2  0  0  0  0
 20 25  1  0  0  0  0
 21 26  2  0  0  0  0
 22 24  2  0  0  0  0
 23 24  1  0  0  0  0
 25 27  2  0  0  0  0
 26 27  1  0  0  0  0
M  END
> <DATABASE_ID>
DB01244

> <DATABASE_NAME>
drugbank

> <SMILES>
CC(C)COCC(CN(CC1=CC=CC=C1)C1=CC=CC=C1)N1CCCC1

> <INCHI_IDENTIFIER>
InChI=1S/C24H34N2O/c1-21(2)19-27-20-24(25-15-9-10-16-25)18-26(23-13-7-4-8-14-23)17-22-11-5-3-6-12-22/h3-8,11-14,21,24H,9-10,15-20H2,1-2H3

> <INCHI_KEY>
UIEATEWHFDRYRU-UHFFFAOYSA-N

> <FORMULA>
C24H34N2O

> <MOLECULAR_WEIGHT>
366.5396

> <EXACT_MASS>
366.26711372

> <JCHEM_ACCEPTOR_COUNT>
3

> <JCHEM_AVERAGE_POLARIZABILITY>
43.49593555275381

> <JCHEM_BIOAVAILABILITY>
1

> <JCHEM_DONOR_COUNT>
0

> <JCHEM_FORMAL_CHARGE>
0

> <JCHEM_GHOSE_FILTER>
1

> <JCHEM_IUPAC>
N-benzyl-N-[3-(2-methylpropoxy)-2-(pyrrolidin-1-yl)propyl]aniline

> <ALOGPS_LOGP>
5.33

> <JCHEM_LOGP>
5.487299518666666

> <ALOGPS_LOGS>
-4.75

> <JCHEM_MDDR_LIKE_RULE>
1

> <JCHEM_NUMBER_OF_RINGS>
3

> <JCHEM_PHYSIOLOGICAL_CHARGE>
1

> <JCHEM_PKA_STRONGEST_BASIC>
9.156553004146938

> <JCHEM_POLAR_SURFACE_AREA>
15.71

> <JCHEM_REFRACTIVITY>
115.11720000000004

> <JCHEM_ROTATABLE_BOND_COUNT>
10

> <JCHEM_RULE_OF_FIVE>
0

> <ALOGPS_SOLUBILITY>
6.55e-03 g/l

> <JCHEM_TRADITIONAL_IUPAC>
bepridil

> <JCHEM_VEBER_RULE>
1

> <DRUGBANK_ID>
DB01244

> <SECONDARY_ACCESSION_NUMBERS>
APRD00727

> <DRUG_GROUPS>
approved; withdrawn

> <GENERIC_NAME>
Bepridil

> <SYNONYMS>
Bepadin; Bepridil

> <INTERNATIONAL_BRANDS>
Angopril; Cordium; Vascor

> <SALTS>
Bepridil hydrochloride

$$$$
1332
  Mrv0541 02231215232D          

 26 28  0  0  1  0            999 V2000
    2.3644   -0.5231    0.0000 S   0  0  0  0  0  0  0  0  0  0  0  0
    8.0027   -0.9319    0.0000 S   0  0  0  0  0  0  0  0  0  0  0  0
    4.4929    1.3024    0.0000 O   0  0  0  0  0  0  0  0  0  0  0  0
    1.6500    2.3644    0.0000 O   0  0  0  0  0  0  0  0  0  0  0  0
    5.5054    0.3098    0.0000 O   0  0  0  0  0  0  0  0  0  0  0  0
    3.0790    2.3644    0.0000 O   0  0  0  0  0  0  0  0  0  0  0  0
    4.8599   -2.0795    0.0000 O   0  0  0  0  0  0  0  0  0  0  0  0
    3.0790    0.7144    0.0000 N   0  0  0  0  0  0  0  0  0  0  0  0
    4.4929   -0.6985    0.0000 N   0  0  0  0  0  0  0  0  0  0  0  0
    5.6573   -1.8676    0.0000 N   0  0  0  0  0  0  0  0  0  0  0  0
    6.9670   -0.0897    0.0000 N   0  0  0  0  0  0  0  0  0  0  0  0
    8.3113    0.5055    0.0000 N   0  0  0  0  0  0  0  0  0  0  0  0
    3.0790   -0.1106    0.0000 C   0  0  1  0  0  0  0  0  0  0  0  0
    3.9107   -0.1139    0.0000 C   0  0  1  0  0  0  0  0  0  0  0  0
    3.9107    0.7179    0.0000 C   0  0  0  0  0  0  0  0  0  0  0  0
    2.3644    1.1270    0.0000 C   0  0  0  0  0  0  0  0  0  0  0  0
    1.6500   -0.1106    0.0000 C   0  0  0  0  0  0  0  0  0  0  0  0
    1.6500    0.7144    0.0000 C   0  0  0  0  0  0  0  0  0  0  0  0
    5.2902   -0.4866    0.0000 C   0  0  0  0  0  0  0  0  0  0  0  0
    2.3644    1.9520    0.0000 C   0  0  0  0  0  0  0  0  0  0  0  0
    5.8724   -1.0712    0.0000 C   0  0  0  0  0  0  0  0  0  0  0  0
    6.6697   -0.8593    0.0000 C   0  0  0  0  0  0  0  0  0  0  0  0
    7.3098   -1.3798    0.0000 C   0  0  0  0  0  0  0  0  0  0  0  0
    7.7908   -0.1346    0.0000 C   0  0  0  0  0  0  0  0  0  0  0  0
    4.6447   -2.8760    0.0000 C   0  0  0  0  0  0  0  0  0  0  0  0
    3.2484   -0.7484    0.0000 H   0  0  0  0  0  0  0  0  0  0  0  0
  1 13  1  0  0  0  0
  1 17  1  0  0  0  0
  2 23  1  0  0  0  0
  2 24  1  0  0  0  0
  3 15  2  0  0  0  0
  4 20  1  0  0  0  0
  5 19  2  0  0  0  0
  6 20  2  0  0  0  0
  7 10  1  0  0  0  0
  7 25  1  0  0  0  0
  8 13  1  0  0  0  0
  8 15  1  0  0  0  0
  8 16  1  0  0  0  0
 14  9  1  1  0  0  0
  9 19  1  0  0  0  0
 10 21  2  0  0  0  0
 11 22  1  0  0  0  0
 11 24  2  0  0  0  0
 12 24  1  0  0  0  0
 13 14  1  0  0  0  0
 13 26  1  6  0  0  0
 14 15  1  0  0  0  0
 16 18  2  0  0  0  0
 16 20  1  0  0  0  0
 17 18  1  0  0  0  0
 19 21  1  0  0  0  0
 21 22  1  0  0  0  0
 22 23  2  0  0  0  0
M  END
> <DATABASE_ID>
DB01332

> <DATABASE_NAME>
drugbank

> <SMILES>
[H][C@]12SCC=C(N1C(=O)[C@H]2NC(=O)C(=N/OC)\C1=CSC(N)=N1)C(O)=O

> <INCHI_IDENTIFIER>
InChI=1S/C13H13N5O5S2/c1-23-17-7(5-4-25-13(14)15-5)9(19)16-8-10(20)18-6(12(21)22)2-3-24-11(8)18/h2,4,8,11H,3H2,1H3,(H2,14,15)(H,16,19)(H,21,22)/b17-7-/t8-,11-/m1/s1

> <INCHI_KEY>
NNULBSISHYWZJU-LLKWHZGFSA-N

> <FORMULA>
C13H13N5O5S2

> <MOLECULAR_WEIGHT>
383.403

> <EXACT_MASS>
383.035809931

> <JCHEM_ACCEPTOR_COUNT>
8

> <JCHEM_AVERAGE_POLARIZABILITY>
35.384736851192116

> <JCHEM_BIOAVAILABILITY>
1

> <JCHEM_DONOR_COUNT>
3

> <JCHEM_FORMAL_CHARGE>
0

> <JCHEM_GHOSE_FILTER>
0

> <JCHEM_IUPAC>
(6R,7R)-7-[(2Z)-2-(2-amino-1,3-thiazol-4-yl)-2-(methoxyimino)acetamido]-8-oxo-5-thia-1-azabicyclo[4.2.0]oct-2-ene-2-carboxylic acid

> <ALOGPS_LOGP>
0.40

> <JCHEM_LOGP>
-0.8461847284759494

> <ALOGPS_LOGS>
-3.22

> <JCHEM_MDDR_LIKE_RULE>
0

> <JCHEM_NUMBER_OF_RINGS>
3

> <JCHEM_PHYSIOLOGICAL_CHARGE>
-1

> <JCHEM_PKA>
11.001813101448358

> <JCHEM_PKA_STRONGEST_ACIDIC>
3.1289452768124875

> <JCHEM_PKA_STRONGEST_BASIC>
4.156329481176345

> <JCHEM_POLAR_SURFACE_AREA>
147.21

> <JCHEM_REFRACTIVITY>
89.90010000000001

> <JCHEM_ROTATABLE_BOND_COUNT>
5

> <JCHEM_RULE_OF_FIVE>
1

> <ALOGPS_SOLUBILITY>
2.29e-01 g/l

> <JCHEM_TRADITIONAL_IUPAC>
ceftizoxime

> <JCHEM_VEBER_RULE>
0

> <DRUGBANK_ID>
DB01332

> <DRUG_GROUPS>
approved; withdrawn

> <GENERIC_NAME>
Ceftizoxime

> <SYNONYMS>
7-[2-(2-Amino-thiazol-4-yl)-2-methoxyimino-acetylamino]-8-oxo-5-thia-1-aza-bicyclo[4.2.0]oct-2-ene-2-carboxylic acid; Ceftizoxima; Ceftizoxime; Ceftizoximum; syn-7-(2-(2-Amino-4-thiazolyl)-2-methoxyiminoacetamido)-3-cephem-4-carboxylic acid

> <PRODUCTS>
Cefizox

> <INTERNATIONAL_BRANDS>
Epocelin

> <SALTS>
Ceftizoxime sodium

$$$$
1388
  Mrv0541 02231215262D          

 36 39  0  0  1  0            999 V2000
   11.1048    3.2403    0.0000 F   0  0  0  0  0  0  0  0  0  0  0  0
    6.6529    1.9829    0.0000 O   0  0  0  0  0  0  0  0  0  0  0  0
    6.6529    3.4119    0.0000 O   0  0  0  0  0  0  0  0  0  0  0  0
    5.0029    3.4119    0.0000 O   0  0  0  0  0  0  0  0  0  0  0  0
    5.8279    0.5539    0.0000 N   0  0  0  0  0  0  0  0  0  0  0  0
    2.5371   -0.9601    0.0000 N   0  0  0  0  0  0  0  0  0  0  0  0
    3.6871   -1.6240    0.0000 N   0  0  0  0  0  0  0  0  0  0  0  0
    7.4780    1.9829    0.0000 C   0  0  1  0  0  0  0  0  0  0  0  0
    8.1924    1.5704    0.0000 C   0  0  1  0  0  0  0  0  0  0  0  0
    7.4780    2.8079    0.0000 C   0  0  0  0  0  0  0  0  0  0  0  0
    8.1924    0.7454    0.0000 C   0  0  0  0  0  0  0  0  0  0  0  0
    7.0655    1.2684    0.0000 C   0  0  0  0  0  0  0  0  0  0  0  0
    8.9069    1.9829    0.0000 C   0  0  0  0  0  0  0  0  0  0  0  0
    8.1924    3.2205    0.0000 C   0  0  0  0  0  0  0  0  0  0  0  0
    8.9069    2.8079    0.0000 C   0  0  0  0  0  0  0  0  0  0  0  0
    6.2404    1.2684    0.0000 C   0  0  0  0  0  0  0  0  0  0  0  0
    7.4780    0.3329    0.0000 C   0  0  0  0  0  0  0  0  0  0  0  0
    8.9069    0.3329    0.0000 C   0  0  0  0  0  0  0  0  0  0  0  0
    9.6444    1.5418    0.0000 C   0  0  0  0  0  0  0  0  0  0  0  0
    9.6444    3.2490    0.0000 C   0  0  0  0  0  0  0  0  0  0  0  0
   10.3919    1.9657    0.0000 C   0  0  0  0  0  0  0  0  0  0  0  0
    6.2404    2.6974    0.0000 C   0  0  0  0  0  0  0  0  0  0  0  0
   10.3919    2.8251    0.0000 C   0  0  0  0  0  0  0  0  0  0  0  0
    5.0029    0.5539    0.0000 C   0  0  0  0  0  0  0  0  0  0  0  0
    6.2404   -0.1605    0.0000 C   0  0  0  0  0  0  0  0  0  0  0  0
    4.5904   -0.1605    0.0000 C   0  0  0  0  0  0  0  0  0  0  0  0
    5.4154    2.6974    0.0000 C   0  0  0  0  0  0  0  0  0  0  0  0
    3.7654   -0.1605    0.0000 C   0  0  0  0  0  0  0  0  0  0  0  0
    3.3529   -0.8750    0.0000 C   0  0  0  0  0  0  0  0  0  0  0  0
    4.1779    3.4119    0.0000 C   0  0  0  0  0  0  0  0  0  0  0  0
    2.3645   -1.7618    0.0000 C   0  0  0  0  0  0  0  0  0  0  0  0
    3.0791   -2.1743    0.0000 C   0  0  0  0  0  0  0  0  0  0  0  0
    1.6500   -2.1743    0.0000 C   0  0  0  0  0  0  0  0  0  0  0  0
    3.0791   -2.9994    0.0000 C   0  0  0  0  0  0  0  0  0  0  0  0
    1.6500   -2.9994    0.0000 C   0  0  0  0  0  0  0  0  0  0  0  0
    2.3645   -3.4119    0.0000 C   0  0  0  0  0  0  0  0  0  0  0  0
  1 23  1  0  0  0  0
  8  2  1  6  0  0  0
  2 22  1  0  0  0  0
  3 22  2  0  0  0  0
  4 27  1  0  0  0  0
  4 30  1  0  0  0  0
  5 16  1  0  0  0  0
  5 24  1  0  0  0  0
  5 25  1  0  0  0  0
  6 29  1  0  0  0  0
  6 31  1  0  0  0  0
  7 29  2  0  0  0  0
  7 32  1  0  0  0  0
  8  9  1  0  0  0  0
  8 10  1  0  0  0  0
  8 12  1  0  0  0  0
  9 11  1  6  0  0  0
  9 13  1  0  0  0  0
 10 14  1  0  0  0  0
 11 17  1  0  0  0  0
 11 18  1  0  0  0  0
 12 16  1  0  0  0  0
 13 15  2  0  0  0  0
 13 19  1  0  0  0  0
 14 15  1  0  0  0  0
 15 20  1  0  0  0  0
 19 21  2  0  0  0  0
 20 23  2  0  0  0  0
 21 23  1  0  0  0  0
 22 27  1  0  0  0  0
 24 26  1  0  0  0  0
 26 28  1  0  0  0  0
 28 29  1  0  0  0  0
 31 32  1  0  0  0  0
 31 33  2  0  0  0  0
 32 34  2  0  0  0  0
 33 35  1  0  0  0  0
 34 36  1  0  0  0  0
 35 36  2  0  0  0  0
M  END
> <DATABASE_ID>
DB01388

> <DATABASE_NAME>
drugbank

> <SMILES>
COCC(=O)O[C@]1(CCN(C)CCCC2=NC3=CC=CC=C3N2)CCC2=C(C=CC(F)=C2)[C@@H]1C(C)C

> <INCHI_IDENTIFIER>
InChI=1S/C29H38FN3O3/c1-20(2)28-23-12-11-22(30)18-21(23)13-14-29(28,36-27(34)19-35-4)15-17-33(3)16-7-10-26-31-24-8-5-6-9-25(24)32-26/h5-6,8-9,11-12,18,20,28H,7,10,13-17,19H2,1-4H3,(H,31,32)/t28-,29-/m0/s1

> <INCHI_KEY>
HBNPJJILLOYFJU-VMPREFPWSA-N

> <FORMULA>
C29H38FN3O3

> <MOLECULAR_WEIGHT>
495.6287

> <EXACT_MASS>
495.289720302

> <JCHEM_ACCEPTOR_COUNT>
4

> <JCHEM_BIOAVAILABILITY>
0

> <JCHEM_DONOR_COUNT>
1

> <JCHEM_FORMAL_CHARGE>
0

> <JCHEM_GHOSE_FILTER>
0

> <JCHEM_IUPAC>
(1S,2S)-2-(2-{[3-(1H-1,3-benzodiazol-2-yl)propyl](methyl)amino}ethyl)-6-fluoro-1-(propan-2-yl)-1,2,3,4-tetrahydronaphthalen-2-yl 2-methoxyacetate

> <ALOGPS_LOGP>
5.34

> <JCHEM_LOGP>
5.156992555666666

> <ALOGPS_LOGS>
-5.68

> <JCHEM_MDDR_LIKE_RULE>
1

> <JCHEM_NUMBER_OF_RINGS>
4

> <JCHEM_PHYSIOLOGICAL_CHARGE>
1

> <JCHEM_PKA_STRONGEST_ACIDIC>
12.543807891587726

> <JCHEM_PKA_STRONGEST_BASIC>
9.824900801073062

> <JCHEM_POLAR_SURFACE_AREA>
67.45

> <JCHEM_REFRACTIVITY>
139.73079999999996

> <JCHEM_ROTATABLE_BOND_COUNT>
12

> <JCHEM_RULE_OF_FIVE>
0

> <ALOGPS_SOLUBILITY>
1.04e-03 g/l

> <JCHEM_TRADITIONAL_IUPAC>
mibefradil

> <JCHEM_VEBER_RULE>
0

> <DRUGBANK_ID>
DB01388

> <DRUG_GROUPS>
investigational; withdrawn

> <GENERIC_NAME>
Mibefradil

> <INTERNATIONAL_BRANDS>
Batenac; Befral; Cerate; Quota; Taxben

> <SALTS>
Mibefradil Dihydrochloride

$$$$
1405
  Mrv0541 02231215282D          

 30 33  0  0  1  0            999 V2000
    7.1488    2.0824    0.0000 F   0  0  0  0  0  0  0  0  0  0  0  0
    2.8075   -0.4125    0.0000 F   0  0  0  0  0  0  0  0  0  0  0  0
    4.2364   -2.8875    0.0000 F   0  0  0  0  0  0  0  0  0  0  0  0
    4.2364    2.8875    0.0000 O   0  0  0  0  0  0  0  0  0  0  0  0
    2.0930    1.6500    0.0000 O   0  0  0  0  0  0  0  0  0  0  0  0
    2.8075    2.8875    0.0000 O   0  0  0  0  0  0  0  0  0  0  0  0
    7.1488    0.3926    0.0000 N   0  0  0  0  0  0  0  0  0  0  0  0
    8.5746   -0.4379    0.0000 N   0  0  0  0  0  0  0  0  0  0  0  0
    4.2364    0.4125    0.0000 N   0  0  0  0  0  0  0  0  0  0  0  0
    7.8585   -0.8477    0.0000 C   0  0  0  0  0  0  0  0  0  0  0  0
    7.1456   -0.4324    0.0000 C   0  0  0  0  0  0  0  0  0  0  0  0
    7.8649    0.8023    0.0000 C   0  0  0  0  0  0  0  0  0  0  0  0
    8.5778    0.3871    0.0000 C   0  0  0  0  0  0  0  0  0  0  0  0
    6.4359    0.8078    0.0000 C   0  0  0  0  0  0  0  0  0  0  0  0
    7.8553   -1.6727    0.0000 C   0  0  0  0  0  0  0  0  0  0  0  0
    5.6884    0.3839    0.0000 C   0  0  0  0  0  0  0  0  0  0  0  0
    4.9509    0.8250    0.0000 C   0  0  0  0  0  0  0  0  0  0  0  0
    6.4359    1.6672    0.0000 C   0  0  0  0  0  0  0  0  0  0  0  0
    4.9509    1.6500    0.0000 C   0  0  0  0  0  0  0  0  0  0  0  0
    5.6884    2.0911    0.0000 C   0  0  0  0  0  0  0  0  0  0  0  0
    4.2364    2.0625    0.0000 C   0  0  0  0  0  0  0  0  0  0  0  0
    3.5220    0.8250    0.0000 C   0  0  0  0  0  0  0  0  0  0  0  0
    3.5220    1.6500    0.0000 C   0  0  0  0  0  0  0  0  0  0  0  0
    4.2364   -0.4125    0.0000 C   0  0  0  0  0  0  0  0  0  0  0  0
    3.5220   -0.8250    0.0000 C   0  0  0  0  0  0  0  0  0  0  0  0
    4.9509   -0.8250    0.0000 C   0  0  0  0  0  0  0  0  0  0  0  0
    2.8075    2.0625    0.0000 C   0  0  0  0  0  0  0  0  0  0  0  0
    3.5220   -1.6500    0.0000 C   0  0  0  0  0  0  0  0  0  0  0  0
    4.9509   -1.6500    0.0000 C   0  0  0  0  0  0  0  0  0  0  0  0
    4.2364   -2.0625    0.0000 C   0  0  0  0  0  0  0  0  0  0  0  0
  1 18  1  0  0  0  0
  2 25  1  0  0  0  0
  3 30  1  0  0  0  0
  4 21  2  0  0  0  0
  5 27  1  0  0  0  0
  6 27  2  0  0  0  0
  7 11  1  0  0  0  0
  7 12  1  0  0  0  0
  7 14  1  0  0  0  0
  8 10  1  0  0  0  0
  8 13  1  0  0  0  0
  9 17  1  0  0  0  0
  9 22  1  0  0  0  0
  9 24  1  0  0  0  0
 10 11  1  0  0  0  0
 10 15  1  0  0  0  0
 12 13  1  0  0  0  0
 14 16  1  0  0  0  0
 14 18  2  0  0  0  0
 16 17  2  0  0  0  0
 17 19  1  0  0  0  0
 18 20  1  0  0  0  0
 19 20  2  0  0  0  0
 19 21  1  0  0  0  0
 21 23  1  0  0  0  0
 22 23  2  0  0  0  0
 23 27  1  0  0  0  0
 24 25  2  0  0  0  0
 24 26  1  0  0  0  0
 25 28  1  0  0  0  0
 26 29  2  0  0  0  0
 28 30  2  0  0  0  0
 29 30  1  0  0  0  0
M  END
> <DATABASE_ID>
DB01405

> <DATABASE_NAME>
drugbank

> <SMILES>
CC1CN(CCN1)C1=C(F)C=C2C(=O)C(=CN(C2=C1)C1=C(F)C=C(F)C=C1)C(O)=O

> <INCHI_IDENTIFIER>
InChI=1S/C21H18F3N3O3/c1-11-9-26(5-4-25-11)19-8-18-13(7-16(19)24)20(28)14(21(29)30)10-27(18)17-3-2-12(22)6-15(17)23/h2-3,6-8,10-11,25H,4-5,9H2,1H3,(H,29,30)

> <INCHI_KEY>
QKDHBVNJCZBTMR-UHFFFAOYSA-N

> <FORMULA>
C21H18F3N3O3

> <MOLECULAR_WEIGHT>
417.3811

> <EXACT_MASS>
417.130026072

> <JCHEM_ACCEPTOR_COUNT>
6

> <JCHEM_AVERAGE_POLARIZABILITY>
39.69955051388886

> <JCHEM_BIOAVAILABILITY>
1

> <JCHEM_DONOR_COUNT>
2

> <JCHEM_FORMAL_CHARGE>
0

> <JCHEM_GHOSE_FILTER>
1

> <JCHEM_IUPAC>
1-(2,4-difluorophenyl)-6-fluoro-7-(3-methylpiperazin-1-yl)-4-oxo-1,4-dihydroquinoline-3-carboxylic acid

> <ALOGPS_LOGP>
0.94

> <JCHEM_LOGP>
1.0832036777753498

> <ALOGPS_LOGS>
-4.46

> <JCHEM_MDDR_LIKE_RULE>
0

> <JCHEM_NUMBER_OF_RINGS>
4

> <JCHEM_PHYSIOLOGICAL_CHARGE>
0

> <JCHEM_PKA_STRONGEST_ACIDIC>
5.602473701997453

> <JCHEM_PKA_STRONGEST_BASIC>
8.76403274529935

> <JCHEM_POLAR_SURFACE_AREA>
72.88

> <JCHEM_REFRACTIVITY>
104.5341

> <JCHEM_ROTATABLE_BOND_COUNT>
3

> <JCHEM_RULE_OF_FIVE>
1

> <ALOGPS_SOLUBILITY>
1.44e-02 g/l

> <JCHEM_TRADITIONAL_IUPAC>
temafloxacin

> <JCHEM_VEBER_RULE>
0

> <DRUGBANK_ID>
DB01405

> <DRUG_GROUPS>
withdrawn

> <GENERIC_NAME>
Temafloxacin

> <SYNONYMS>
Temafloxacin; Temafloxacina; Temafloxacine; Temafloxacinum

> <INTERNATIONAL_BRANDS>
Omniflox

> <SALTS>
Temafloxacin hydrochloride

$$$$
1420
  Mrv0541 02231215292D          

 28 31  0  0  1  0            999 V2000
    7.1363    1.2335    0.0000 O   0  0  0  0  0  0  0  0  0  0  0  0
    1.6500   -2.3202    0.0000 O   0  0  0  0  0  0  0  0  0  0  0  0
    8.4945    0.7896    0.0000 O   0  0  0  0  0  0  0  0  0  0  0  0
    6.0993   -0.6270    0.0000 C   0  0  2  0  0  0  0  0  0  0  0  0
    6.0993    0.1980    0.0000 C   0  0  2  0  0  0  0  0  0  0  0  0
    5.3849   -1.0395    0.0000 C   0  0  1  0  0  0  0  0  0  0  0  0
    4.6703   -0.6270    0.0000 C   0  0  1  0  0  0  0  0  0  0  0  0
    3.9196   -1.0452    0.0000 C   0  0  2  0  0  0  0  0  0  0  0  0
    5.3849    0.6105    0.0000 C   0  0  0  0  0  0  0  0  0  0  0  0
    4.6703    0.1980    0.0000 C   0  0  0  0  0  0  0  0  0  0  0  0
    6.8799    0.4494    0.0000 C   0  0  2  0  0  0  0  0  0  0  0  0
    6.8799   -0.8785    0.0000 C   0  0  0  0  0  0  0  0  0  0  0  0
    5.3981   -1.8987    0.0000 C   0  0  0  0  0  0  0  0  0  0  0  0
    7.3614   -0.2145    0.0000 C   0  0  0  0  0  0  0  0  0  0  0  0
    3.9130   -1.9045    0.0000 C   0  0  0  0  0  0  0  0  0  0  0  0
    6.0993    1.0230    0.0000 C   0  0  0  0  0  0  0  0  0  0  0  0
    4.6572   -2.3342    0.0000 C   0  0  0  0  0  0  0  0  0  0  0  0
    3.1550   -0.5798    0.0000 C   0  0  0  0  0  0  0  0  0  0  0  0
    3.9259   -0.2202    0.0000 C   0  0  0  0  0  0  0  0  0  0  0  0
    2.3730   -1.0153    0.0000 C   0  0  0  0  0  0  0  0  0  0  0  0
    3.1413   -2.3580    0.0000 C   0  0  0  0  0  0  0  0  0  0  0  0
    2.3660   -1.9105    0.0000 C   0  0  0  0  0  0  0  0  0  0  0  0
    7.9435    1.4037    0.0000 C   0  0  0  0  0  0  0  0  0  0  0  0
    8.1998    2.1879    0.0000 C   0  0  0  0  0  0  0  0  0  0  0  0
    9.0071    2.3580    0.0000 C   0  0  0  0  0  0  0  0  0  0  0  0
    6.1691   -1.2833    0.0000 H   0  0  0  0  0  0  0  0  0  0  0  0
    5.9589   -1.3651    0.0000 H   0  0  0  0  0  0  0  0  0  0  0  0
    5.2420   -0.2970    0.0000 H   0  0  0  0  0  0  0  0  0  0  0  0
 11  1  1  1  0  0  0
  1 23  1  0  0  0  0
  2 22  2  0  0  0  0
  3 23  2  0  0  0  0
  4  5  1  0  0  0  0
  4  6  1  0  0  0  0
  4 12  1  0  0  0  0
  4 26  1  6  0  0  0
  5  9  1  0  0  0  0
  5 11  1  0  0  0  0
  5 16  1  1  0  0  0
  6  7  1  0  0  0  0
  6 13  1  0  0  0  0
  6 27  1  1  0  0  0
  7  8  1  0  0  0  0
  7 10  1  0  0  0  0
  7 28  1  6  0  0  0
  8 15  1  0  0  0  0
  8 18  1  0  0  0  0
  8 19  1  1  0  0  0
  9 10  1  0  0  0  0
 11 14  1  0  0  0  0
 12 14  1  0  0  0  0
 13 17  1  0  0  0  0
 15 17  1  0  0  0  0
 15 21  2  0  0  0  0
 18 20  1  0  0  0  0
 20 22  1  0  0  0  0
 21 22  1  0  0  0  0
 23 24  1  0  0  0  0
 24 25  1  0  0  0  0
M  END
> <DATABASE_ID>
DB01420

> <DATABASE_NAME>
drugbank

> <SMILES>
[H][C@@]12CC[C@H](OC(=O)CC)[C@@]1(C)CC[C@@]1([H])[C@@]2([H])CCC2=CC(=O)CC[C@]12C

> <INCHI_IDENTIFIER>
InChI=1S/C22H32O3/c1-4-20(24)25-19-8-7-17-16-6-5-14-13-15(23)9-11-21(14,2)18(16)10-12-22(17,19)3/h13,16-19H,4-12H2,1-3H3/t16-,17-,18-,19-,21-,22-/m0/s1

> <INCHI_KEY>
PDMMFKSKQVNJMI-BLQWBTBKSA-N

> <FORMULA>
C22H32O3

> <MOLECULAR_WEIGHT>
344.4877

> <EXACT_MASS>
344.23514489

> <JCHEM_ACCEPTOR_COUNT>
2

> <JCHEM_AVERAGE_POLARIZABILITY>
40.43215909103325

> <JCHEM_BIOAVAILABILITY>
1

> <JCHEM_DONOR_COUNT>
0

> <JCHEM_FORMAL_CHARGE>
0

> <JCHEM_GHOSE_FILTER>
1

> <JCHEM_IUPAC>
(1S,2R,10R,11S,14S,15S)-2,15-dimethyl-5-oxotetracyclo[8.7.0.0²,⁷.0¹¹,¹⁵]heptadec-6-en-14-yl propanoate

> <ALOGPS_LOGP>
3.65

> <JCHEM_LOGP>
4.507084555000001

> <ALOGPS_LOGS>
-4.84

> <JCHEM_MDDR_LIKE_RULE>
0

> <JCHEM_NUMBER_OF_RINGS>
4

> <JCHEM_PHYSIOLOGICAL_CHARGE>
0

> <JCHEM_PKA_STRONGEST_ACIDIC>
19.086854770611403

> <JCHEM_PKA_STRONGEST_BASIC>
-4.814844779925626

> <JCHEM_POLAR_SURFACE_AREA>
43.370000000000005

> <JCHEM_REFRACTIVITY>
98.20819999999998

> <JCHEM_ROTATABLE_BOND_COUNT>
3

> <JCHEM_RULE_OF_FIVE>
1

> <ALOGPS_SOLUBILITY>
5.02e-03 g/l

> <JCHEM_TRADITIONAL_IUPAC>
androgen

> <JCHEM_VEBER_RULE>
0

> <DRUGBANK_ID>
DB01420

> <SECONDARY_ACCESSION_NUMBERS>
DBSALT001032

> <DRUG_GROUPS>
approved; investigational; vet_approved; withdrawn

> <GENERIC_NAME>
Testosterone propionate

> <PRODUCTS>
Malogen In Oil Liq 100mg/ml; Testosterone Propionate Inj 100mg/ml; Testosterone Propionate Injection, USP; Testosterone Propionate Micro

> <INTERNATIONAL_BRANDS>
Testex

$$$$
1424
  Mrv0541 02231215292D          

 17 18  0  0  1  0            999 V2000
    4.5542    0.1222    0.0000 O   0  0  0  0  0  0  0  0  0  0  0  0
    2.4347    0.3771    0.0000 N   0  0  0  0  0  0  0  0  0  0  0  0
    3.1021   -0.1078    0.0000 N   0  0  0  0  0  0  0  0  0  0  0  0
    3.9996    1.8292    0.0000 N   0  0  0  0  0  0  0  0  0  0  0  0
    2.6896    1.1617    0.0000 C   0  0  0  0  0  0  0  0  0  0  0  0
    3.5146    1.1617    0.0000 C   0  0  0  0  0  0  0  0  0  0  0  0
    3.7696    0.3771    0.0000 C   0  0  0  0  0  0  0  0  0  0  0  0
    3.1021   -0.9328    0.0000 C   0  0  0  0  0  0  0  0  0  0  0  0
    2.2047    1.8292    0.0000 C   0  0  0  0  0  0  0  0  0  0  0  0
    1.6500    0.1222    0.0000 C   0  0  0  0  0  0  0  0  0  0  0  0
    3.6640    2.5829    0.0000 C   0  0  0  0  0  0  0  0  0  0  0  0
    4.8201    1.7429    0.0000 C   0  0  0  0  0  0  0  0  0  0  0  0
    3.8166   -1.3454    0.0000 C   0  0  0  0  0  0  0  0  0  0  0  0
    2.3876   -1.3454    0.0000 C   0  0  0  0  0  0  0  0  0  0  0  0
    3.8166   -2.1704    0.0000 C   0  0  0  0  0  0  0  0  0  0  0  0
    2.3876   -2.1704    0.0000 C   0  0  0  0  0  0  0  0  0  0  0  0
    3.1021   -2.5829    0.0000 C   0  0  0  0  0  0  0  0  0  0  0  0
  1  7  2  0  0  0  0
  2  3  1  0  0  0  0
  2  5  1  0  0  0  0
  2 10  1  0  0  0  0
  3  7  1  0  0  0  0
  3  8  1  0  0  0  0
  4  6  1  0  0  0  0
  4 11  1  0  0  0  0
  4 12  1  0  0  0  0
  5  6  2  0  0  0  0
  5  9  1  0  0  0  0
  6  7  1  0  0  0  0
  8 13  2  0  0  0  0
  8 14  1  0  0  0  0
 13 15  1  0  0  0  0
 14 16  2  0  0  0  0
 15 17  2  0  0  0  0
 16 17  1  0  0  0  0
M  END
> <DATABASE_ID>
DB01424

> <DATABASE_NAME>
drugbank

> <SMILES>
CN(C)C1=C(C)N(C)N(C1=O)C1=CC=CC=C1

> <INCHI_IDENTIFIER>
InChI=1S/C13H17N3O/c1-10-12(14(2)3)13(17)16(15(10)4)11-8-6-5-7-9-11/h5-9H,1-4H3

> <INCHI_KEY>
RMMXTBMQSGEXHJ-UHFFFAOYSA-N

> <FORMULA>
C13H17N3O

> <MOLECULAR_WEIGHT>
231.2936

> <EXACT_MASS>
231.137162181

> <JCHEM_ACCEPTOR_COUNT>
3

> <JCHEM_AVERAGE_POLARIZABILITY>
25.86589988753915

> <JCHEM_BIOAVAILABILITY>
1

> <JCHEM_DONOR_COUNT>
0

> <JCHEM_FORMAL_CHARGE>
0

> <JCHEM_GHOSE_FILTER>
1

> <JCHEM_IUPAC>
4-(dimethylamino)-1,5-dimethyl-2-phenyl-2,3-dihydro-1H-pyrazol-3-one

> <ALOGPS_LOGP>
0.94

> <JCHEM_LOGP>
1.1505949156666666

> <ALOGPS_LOGS>
-1.01

> <JCHEM_MDDR_LIKE_RULE>
0

> <JCHEM_NUMBER_OF_RINGS>
2

> <JCHEM_PHYSIOLOGICAL_CHARGE>
0

> <JCHEM_PKA_STRONGEST_BASIC>
3.4650629529248964

> <JCHEM_POLAR_SURFACE_AREA>
26.790000000000006

> <JCHEM_REFRACTIVITY>
70.11100000000002

> <JCHEM_ROTATABLE_BOND_COUNT>
2

> <JCHEM_RULE_OF_FIVE>
1

> <ALOGPS_SOLUBILITY>
2.25e+01 g/l

> <JCHEM_TRADITIONAL_IUPAC>
aminophenazone

> <JCHEM_VEBER_RULE>
1

> <DRUGBANK_ID>
DB01424

> <DRUG_GROUPS>
approved; withdrawn

> <GENERIC_NAME>
Aminophenazone

> <SYNONYMS>
(Dimethylamino)phenazone; 1-Phenyl-2,3-dimethyl-4-(dimethylamino)-5-pyrazolone; 1-Phenyl-2,3-dimethyl-4-dimethylaminopyrazol-5-one; 1,5-Dimethyl-4-dimethylamino-2-phenyl-3-pyrazolone; 2,3-Dimethyl-4-dimethylamino-1-phenyl-5-pyrazolone; 3-Keto-1,5-dimethyl-4-dimethylamino-2-phenyl-2,3-dihydropyrazole; 4-(Dimethylamino)-1,2-dihydro-1,5-dimethyl-2-phenyl-3H-pyrazol-3-one; 4-(Dimethylamino)-1,5-dimethyl-2-phenyl-1,2-dihydro-3H-pyrazol-3-one; 4-(Dimethylamino)antipyrine; 4-Dimethylamino-1-phenyl-2,3-dimethylpyrazolone; 4-Dimethylamino-2,3-dimethyl-1-phenyl-3-pyrazolin-5-one; 4-Dimethylamino-2,3-dimethyl-1-phenyl-5-pyrazolone; 4-Dimethylaminoantipyrine; 4-Dimethylaminophenazone; Aminofenazona; Aminofenazone; Aminophenazon; Aminophenazone; Aminophenazonum; Aminopyrine; Dimethylaminoantipyrine; Dimethylaminoazophene; Dimethylaminophenazon; Dimethylaminophenazone; Dimethylaminophenyldimethylpyrazolone; Dipyrine

$$$$
1459
  Mrv0541 02231215302D          

 37 41  0  0  0  0            999 V2000
    5.1661   -2.3526    0.0000 O   0  0  0  0  0  0  0  0  0  0  0  0
    3.5649   -4.4147    0.0000 O   0  0  0  0  0  0  0  0  0  0  0  0
    4.6285    0.6639    0.0000 N   0  0  0  0  0  0  0  0  0  0  0  0
    3.8596   -1.6886    0.0000 N   0  0  0  0  0  0  0  0  0  0  0  0
    3.8596   -3.0165    0.0000 N   0  0  0  0  0  0  0  0  0  0  0  0
    4.3800    2.9150    0.0000 N   0  0  0  0  0  0  0  0  0  0  0  0
    4.1159   -0.9045    0.0000 C   0  0  0  0  0  0  0  0  0  0  0  0
    4.9232   -0.7343    0.0000 C   0  0  0  0  0  0  0  0  0  0  0  0
    3.5649   -0.2904    0.0000 C   0  0  0  0  0  0  0  0  0  0  0  0
    5.1795    0.0498    0.0000 C   0  0  0  0  0  0  0  0  0  0  0  0
    3.8213    0.4938    0.0000 C   0  0  0  0  0  0  0  0  0  0  0  0
    4.8848    1.4481    0.0000 C   0  0  0  0  0  0  0  0  0  0  0  0
    5.6921    1.6183    0.0000 C   0  0  0  0  0  0  0  0  0  0  0  0
    3.0790   -1.9401    0.0000 C   0  0  0  0  0  0  0  0  0  0  0  0
    5.9484    2.4024    0.0000 C   0  0  0  0  0  0  0  0  0  0  0  0
    4.3411   -2.3526    0.0000 C   0  0  0  0  0  0  0  0  0  0  0  0
    3.0790   -2.7651    0.0000 C   0  0  0  0  0  0  0  0  0  0  0  0
    6.7326    2.1461    0.0000 C   0  0  0  0  0  0  0  0  0  0  0  0
    6.2047    3.1866    0.0000 C   0  0  0  0  0  0  0  0  0  0  0  0
    2.3645   -1.5276    0.0000 C   0  0  0  0  0  0  0  0  0  0  0  0
    2.3645   -3.1776    0.0000 C   0  0  0  0  0  0  0  0  0  0  0  0
    4.1159   -3.8006    0.0000 C   0  0  0  0  0  0  0  0  0  0  0  0
    5.1642    2.6588    0.0000 C   0  0  0  0  0  0  0  0  0  0  0  0
    1.6500   -1.9401    0.0000 C   0  0  0  0  0  0  0  0  0  0  0  0
    1.6500   -2.7651    0.0000 C   0  0  0  0  0  0  0  0  0  0  0  0
    7.3466    2.6971    0.0000 C   0  0  0  0  0  0  0  0  0  0  0  0
    5.6537    3.8006    0.0000 C   0  0  0  0  0  0  0  0  0  0  0  0
    6.9027    1.3388    0.0000 C   0  0  0  0  0  0  0  0  0  0  0  0
    7.0120    3.3567    0.0000 C   0  0  0  0  0  0  0  0  0  0  0  0
    4.9232   -3.9708    0.0000 C   0  0  0  0  0  0  0  0  0  0  0  0
    8.1308    2.4408    0.0000 C   0  0  0  0  0  0  0  0  0  0  0  0
    5.9100    4.5848    0.0000 C   0  0  0  0  0  0  0  0  0  0  0  0
    7.6868    1.0826    0.0000 C   0  0  0  0  0  0  0  0  0  0  0  0
    7.2682    4.1410    0.0000 C   0  0  0  0  0  0  0  0  0  0  0  0
    5.1795   -4.7550    0.0000 C   0  0  0  0  0  0  0  0  0  0  0  0
    8.3009    1.6335    0.0000 C   0  0  0  0  0  0  0  0  0  0  0  0
    6.7173    4.7550    0.0000 C   0  0  0  0  0  0  0  0  0  0  0  0
  1 16  2  0  0  0  0
  2 22  2  0  0  0  0
  3 10  1  0  0  0  0
  3 11  1  0  0  0  0
  3 12  1  0  0  0  0
  4  7  1  0  0  0  0
  4 14  1  0  0  0  0
  4 16  1  0  0  0  0
  5 16  1  0  0  0  0
  5 17  1  0  0  0  0
  5 22  1  0  0  0  0
  6 23  3  0  0  0  0
  7  8  1  0  0  0  0
  7  9  1  0  0  0  0
  8 10  1  0  0  0  0
  9 11  1  0  0  0  0
 12 13  1  0  0  0  0
 13 15  1  0  0  0  0
 14 17  1  0  0  0  0
 14 20  2  0  0  0  0
 15 18  1  0  0  0  0
 15 19  1  0  0  0  0
 15 23  1  0  0  0  0
 17 21  2  0  0  0  0
 18 26  2  0  0  0  0
 18 28  1  0  0  0  0
 19 27  2  0  0  0  0
 19 29  1  0  0  0  0
 20 24  1  0  0  0  0
 21 25  1  0  0  0  0
 22 30  1  0  0  0  0
 24 25  2  0  0  0  0
 26 31  1  0  0  0  0
 27 32  1  0  0  0  0
 28 33  2  0  0  0  0
 29 34  2  0  0  0  0
 30 35  1  0  0  0  0
 31 36  2  0  0  0  0
 32 37  2  0  0  0  0
 33 36  1  0  0  0  0
 34 37  1  0  0  0  0
M  END
> <DATABASE_ID>
DB01459

> <DATABASE_NAME>
drugbank

> <SMILES>
CCC(=O)N1C(=O)N(C2CCN(CCC(C#N)(C3=CC=CC=C3)C3=CC=CC=C3)CC2)C2=CC=CC=C12

> <INCHI_IDENTIFIER>
InChI=1S/C31H32N4O2/c1-2-29(36)35-28-16-10-9-15-27(28)34(30(35)37)26-17-20-33(21-18-26)22-19-31(23-32,24-11-5-3-6-12-24)25-13-7-4-8-14-25/h3-16,26H,2,17-22H2,1H3

> <INCHI_KEY>
FLKWNFFCSSJANB-UHFFFAOYSA-N

> <FORMULA>
C31H32N4O2

> <MOLECULAR_WEIGHT>
492.6114

> <EXACT_MASS>
492.252526288

> <JCHEM_ACCEPTOR_COUNT>
4

> <JCHEM_AVERAGE_POLARIZABILITY>
55.57782805239998

> <JCHEM_BIOAVAILABILITY>
1

> <JCHEM_DONOR_COUNT>
0

> <JCHEM_FORMAL_CHARGE>
0

> <JCHEM_GHOSE_FILTER>
0

> <JCHEM_IUPAC>
4-[4-(2-oxo-3-propanoyl-2,3-dihydro-1H-1,3-benzodiazol-1-yl)piperidin-1-yl]-2,2-diphenylbutanenitrile

> <ALOGPS_LOGP>
4.35

> <JCHEM_LOGP>
4.794030338333334

> <ALOGPS_LOGS>
-4.87

> <JCHEM_MDDR_LIKE_RULE>
1

> <JCHEM_NUMBER_OF_RINGS>
5

> <JCHEM_PHYSIOLOGICAL_CHARGE>
1

> <JCHEM_PKA_STRONGEST_BASIC>
8.320154204728038

> <JCHEM_POLAR_SURFACE_AREA>
67.65

> <JCHEM_REFRACTIVITY>
155.25199999999998

> <JCHEM_ROTATABLE_BOND_COUNT>
7

> <JCHEM_RULE_OF_FIVE>
1

> <ALOGPS_SOLUBILITY>
6.70e-03 g/l

> <JCHEM_TRADITIONAL_IUPAC>
bezitramide

> <JCHEM_VEBER_RULE>
0

> <DRUGBANK_ID>
DB01459

> <DRUG_GROUPS>
experimental; illicit; withdrawn

> <GENERIC_NAME>
Bezitramide

> <SYNONYMS>
Bezitramida; Bezitramide; Bezitramidum

> <INTERNATIONAL_BRANDS>
Burgodin 

$$$$
1463
  Mrv0541 02231215302D          

 16 18  0  0  1  0            999 V2000
    2.6602    0.9070    0.0000 N   0  0  0  0  0  0  0  0  0  0  0  0
    5.2984    0.8040    0.0000 C   0  0  0  0  0  0  0  0  0  0  0  0
    5.5119    1.6008    0.0000 C   0  0  0  0  0  0  0  0  0  0  0  0
    3.8696   -0.0210    0.0000 C   0  0  0  0  0  0  0  0  0  0  0  0
    3.4571    0.6934    0.0000 C   0  0  0  0  0  0  0  0  0  0  0  0
    4.9042    2.4115    0.0000 C   0  0  0  0  0  0  0  0  0  0  0  0
    6.8097    0.1780    0.0000 C   0  0  0  0  0  0  0  0  0  0  0  0
    7.0231    0.9748    0.0000 C   0  0  0  0  0  0  0  0  0  0  0  0
    3.6561   -0.8177    0.0000 C   0  0  0  0  0  0  0  0  0  0  0  0
    2.4467    1.7039    0.0000 C   0  0  0  0  0  0  0  0  0  0  0  0
    2.8592   -1.0312    0.0000 C   0  0  0  0  0  0  0  0  0  0  0  0
    4.2394   -1.4011    0.0000 C   0  0  0  0  0  0  0  0  0  0  0  0
    1.6499    1.9173    0.0000 C   0  0  0  0  0  0  0  0  0  0  0  0
    2.6457   -1.8282    0.0000 C   0  0  0  0  0  0  0  0  0  0  0  0
    4.0258   -2.1979    0.0000 C   0  0  0  0  0  0  0  0  0  0  0  0
    3.2289   -2.4115    0.0000 C   0  0  0  0  0  0  0  0  0  0  0  0
  1  5  1  0  0  0  0
  1 10  1  0  0  0  0
  2  4  1  0  0  0  0
  2  6  1  0  0  0  0
  2  7  1  0  0  0  0
  3  5  1  0  0  0  0
  3  6  1  0  0  0  0
  3  8  1  0  0  0  0
  4  5  1  0  0  0  0
  4  9  1  0  0  0  0
  7  8  1  0  0  0  0
  9 11  2  0  0  0  0
  9 12  1  0  0  0  0
 10 13  1  0  0  0  0
 11 14  1  0  0  0  0
 12 15  2  0  0  0  0
 14 16  2  0  0  0  0
 15 16  1  0  0  0  0
M  END
> <DATABASE_ID>
DB01463

> <DATABASE_NAME>
drugbank

> <SMILES>
CCNC1C2CCC(C2)C1C1=CC=CC=C1

> <INCHI_IDENTIFIER>
InChI=1S/C15H21N/c1-2-16-15-13-9-8-12(10-13)14(15)11-6-4-3-5-7-11/h3-7,12-16H,2,8-10H2,1H3

> <INCHI_KEY>
IKFBPFGUINLYQI-UHFFFAOYSA-N

> <FORMULA>
C15H21N

> <MOLECULAR_WEIGHT>
215.3339

> <EXACT_MASS>
215.167399677

> <JCHEM_ACCEPTOR_COUNT>
1

> <JCHEM_AVERAGE_POLARIZABILITY>
26.12991500811218

> <JCHEM_BIOAVAILABILITY>
1

> <JCHEM_DONOR_COUNT>
1

> <JCHEM_FORMAL_CHARGE>
0

> <JCHEM_GHOSE_FILTER>
1

> <JCHEM_IUPAC>
N-ethyl-3-phenylbicyclo[2.2.1]heptan-2-amine

> <ALOGPS_LOGP>
3.46

> <JCHEM_LOGP>
3.2056741686666665

> <ALOGPS_LOGS>
-4.86

> <JCHEM_MDDR_LIKE_RULE>
0

> <JCHEM_NUMBER_OF_RINGS>
3

> <JCHEM_PHYSIOLOGICAL_CHARGE>
1

> <JCHEM_PKA_STRONGEST_BASIC>
10.563142373934664

> <JCHEM_POLAR_SURFACE_AREA>
12.03

> <JCHEM_REFRACTIVITY>
67.63980000000001

> <JCHEM_ROTATABLE_BOND_COUNT>
3

> <JCHEM_RULE_OF_FIVE>
1

> <ALOGPS_SOLUBILITY>
2.95e-03 g/l

> <JCHEM_TRADITIONAL_IUPAC>
fencamfamine

> <JCHEM_VEBER_RULE>
1

> <DRUGBANK_ID>
DB01463

> <DRUG_GROUPS>
experimental; illicit; withdrawn

> <GENERIC_NAME>
Fencamfamin

> <SYNONYMS>
Fencamfamin; Fencamfamina; Fencamfamine; Fencamfaminum; Fencanfamina; Phencamphamine

> <INTERNATIONAL_BRANDS>
Glucoenergan; Reactivan

> <SALTS>
Fencamfamine hydrochloride

$$$$
1493
  Mrv0541 02231215312D          

 25 28  0  0  1  0            999 V2000
    6.8323    1.1889    0.0000 O   0  0  0  0  0  0  0  0  0  0  0  0
    5.3833    0.4537    0.0000 C   0  0  1  0  0  0  0  0  0  0  0  0
    5.3833   -0.3713    0.0000 C   0  0  2  0  0  0  0  0  0  0  0  0
    4.6689   -0.7838    0.0000 C   0  0  1  0  0  0  0  0  0  0  0  0
    3.9544   -0.3713    0.0000 C   0  0  2  0  0  0  0  0  0  0  0  0
    6.1640    0.7051    0.0000 C   0  0  2  0  0  0  0  0  0  0  0  0
    4.6689    0.8662    0.0000 C   0  0  0  0  0  0  0  0  0  0  0  0
    6.1640   -0.6227    0.0000 C   0  0  0  0  0  0  0  0  0  0  0  0
    3.9544    0.4537    0.0000 C   0  0  0  0  0  0  0  0  0  0  0  0
    6.6455    0.0412    0.0000 C   0  0  0  0  0  0  0  0  0  0  0  0
    3.2036   -0.7895    0.0000 C   0  0  2  0  0  0  0  0  0  0  0  0
    4.6821   -1.6431    0.0000 C   0  0  0  0  0  0  0  0  0  0  0  0
    5.3833    1.2787    0.0000 C   0  0  0  0  0  0  0  0  0  0  0  0
    5.9104    1.4902    0.0000 C   0  0  0  0  0  0  0  0  0  0  0  0
    3.9412   -2.0785    0.0000 C   0  0  0  0  0  0  0  0  0  0  0  0
    3.1970   -1.6488    0.0000 C   0  0  0  0  0  0  0  0  0  0  0  0
    2.4389   -0.3241    0.0000 C   0  0  0  0  0  0  0  0  0  0  0  0
    1.6570   -0.7597    0.0000 C   0  0  0  0  0  0  0  0  0  0  0  0
    2.4252   -2.1023    0.0000 C   0  0  0  0  0  0  0  0  0  0  0  0
    6.4635    2.1023    0.0000 C   0  0  0  0  0  0  0  0  0  0  0  0
    1.6500   -1.6547    0.0000 C   0  0  0  0  0  0  0  0  0  0  0  0
    5.4532   -1.0276    0.0000 H   0  0  0  0  0  0  0  0  0  0  0  0
    5.2430   -1.1094    0.0000 H   0  0  0  0  0  0  0  0  0  0  0  0
    4.5260   -0.0413    0.0000 H   0  0  0  0  0  0  0  0  0  0  0  0
    3.2163   -0.1296    0.0000 H   0  0  0  0  0  0  0  0  0  0  0  0
  6  1  1  1  0  0  0
  2  3  1  0  0  0  0
  2  6  1  0  0  0  0
  2  7  1  0  0  0  0
  2 13  1  1  0  0  0
  3  4  1  0  0  0  0
  3  8  1  0  0  0  0
  3 22  1  6  0  0  0
  4  5  1  0  0  0  0
  4 12  1  0  0  0  0
  4 23  1  1  0  0  0
  5  9  1  0  0  0  0
  5 11  1  0  0  0  0
  5 24  1  6  0  0  0
  6 10  1  0  0  0  0
  6 14  1  0  0  0  0
  7  9  1  0  0  0  0
  8 10  1  0  0  0  0
 11 16  1  0  0  0  0
 11 17  1  0  0  0  0
 11 25  1  1  0  0  0
 12 15  1  0  0  0  0
 14 20  1  0  0  0  0
 15 16  1  0  0  0  0
 16 19  2  0  0  0  0
 17 18  1  0  0  0  0
 18 21  1  0  0  0  0
 19 21  1  0  0  0  0
M  END
> <DATABASE_ID>
DB01493

> <DATABASE_NAME>
drugbank

> <SMILES>
[H][C@@]12CC[C@@](O)(CC)[C@@]1(C)CC[C@]1([H])[C@@]3([H])CCCC=C3CC[C@@]21[H]

> <INCHI_IDENTIFIER>
InChI=1S/C20H32O/c1-3-20(21)13-11-18-17-9-8-14-6-4-5-7-15(14)16(17)10-12-19(18,20)2/h6,15-18,21H,3-5,7-13H2,1-2H3/t15-,16+,17+,18-,19-,20-/m0/s1

> <INCHI_KEY>
AOXRBFRFYPMWLR-XGXHKTLJSA-N

> <FORMULA>
C20H32O

> <MOLECULAR_WEIGHT>
288.4675

> <EXACT_MASS>
288.245315646

> <JCHEM_ACCEPTOR_COUNT>
1

> <JCHEM_AVERAGE_POLARIZABILITY>
35.93657901645529

> <JCHEM_BIOAVAILABILITY>
1

> <JCHEM_DONOR_COUNT>
1

> <JCHEM_FORMAL_CHARGE>
0

> <JCHEM_GHOSE_FILTER>
1

> <JCHEM_IUPAC>
(1S,2R,10R,11S,14S,15S)-14-ethyl-15-methyltetracyclo[8.7.0.0²,⁷.0¹¹,¹⁵]heptadec-6-en-14-ol

> <ALOGPS_LOGP>
5.20

> <JCHEM_LOGP>
4.687947820000001

> <ALOGPS_LOGS>
-5.53

> <JCHEM_MDDR_LIKE_RULE>
0

> <JCHEM_NUMBER_OF_RINGS>
4

> <JCHEM_PHYSIOLOGICAL_CHARGE>
0

> <JCHEM_PKA_STRONGEST_BASIC>
-0.26909618244654065

> <JCHEM_POLAR_SURFACE_AREA>
20.23

> <JCHEM_REFRACTIVITY>
88.4988

> <JCHEM_ROTATABLE_BOND_COUNT>
1

> <JCHEM_RULE_OF_FIVE>
1

> <ALOGPS_SOLUBILITY>
8.60e-04 g/l

> <JCHEM_TRADITIONAL_IUPAC>
ethylestrenol

> <JCHEM_VEBER_RULE>
1

> <DRUGBANK_ID>
DB01493

> <DRUG_GROUPS>
withdrawn

> <GENERIC_NAME>
Ethylestrenol

> <SYNONYMS>
Ethylestrenol; etilestrenol

$$$$
1494
  Mrv0541 02231215312D          

 15 13  0  0  0  0            999 V2000
    0.3572    0.3020    0.0000 Cl  0  0  0  0  0  0  0  0  0  0  0  0
    0.6592    1.4290    0.0000 Cl  0  0  0  0  0  0  0  0  0  0  0  0
    1.4842    0.0000    0.0000 Cl  0  0  0  0  0  0  0  0  0  0  0  0
    3.3009    5.4278    0.0000 O   0  5  0  0  0  0  0  0  0  0  0  0
    2.5864    4.1903    0.0000 O   0  0  0  0  0  0  0  0  0  0  0  0
    2.5007    0.7145    0.0000 O   0  0  0  0  0  0  0  0  0  0  0  0
    1.7862    1.9520    0.0000 O   0  0  0  0  0  0  0  0  0  0  0  0
    1.1575    5.0153    0.0000 N   0  3  0  0  0  0  0  0  0  0  0  0
    1.8720    5.4278    0.0000 C   0  0  0  0  0  0  0  0  0  0  0  0
    1.5700    4.3008    0.0000 C   0  0  0  0  0  0  0  0  0  0  0  0
    0.7450    5.7298    0.0000 C   0  0  0  0  0  0  0  0  0  0  0  0
    0.4430    4.6028    0.0000 C   0  0  0  0  0  0  0  0  0  0  0  0
    2.5864    5.0153    0.0000 C   0  0  0  0  0  0  0  0  0  0  0  0
    1.7862    1.1270    0.0000 C   0  0  0  0  0  0  0  0  0  0  0  0
    1.0717    0.7145    0.0000 C   0  0  0  0  0  0  0  0  0  0  0  0
  1 15  1  0  0  0  0
  2 15  1  0  0  0  0
  3 15  1  0  0  0  0
  4 13  1  0  0  0  0
  5 13  2  0  0  0  0
  6 14  1  0  0  0  0
  7 14  1  0  0  0  0
  8  9  1  0  0  0  0
  8 10  1  0  0  0  0
  8 11  1  0  0  0  0
  8 12  1  0  0  0  0
  9 13  1  0  0  0  0
 14 15  1  0  0  0  0
M  CHG  2   4  -1   8   1
M  END
> <DATABASE_ID>
DB01494

> <DATABASE_NAME>
drugbank

> <SMILES>
OC(O)C(Cl)(Cl)Cl.C[N+](C)(C)CC([O-])=O

> <INCHI_IDENTIFIER>
InChI=1S/C5H11NO2.C2H3Cl3O2/c1-6(2,3)4-5(7)8;3-2(4,5)1(6)7/h4H2,1-3H3;1,6-7H

> <INCHI_KEY>
ONAOIDNSINNZOA-UHFFFAOYSA-N

> <FORMULA>
C7H14Cl3NO4

> <MOLECULAR_WEIGHT>
282.549

> <EXACT_MASS>
280.998841062

> <JCHEM_ACCEPTOR_COUNT>
2

> <JCHEM_AVERAGE_POLARIZABILITY>
12.112893521461935

> <JCHEM_BIOAVAILABILITY>
1

> <JCHEM_DONOR_COUNT>
0

> <JCHEM_FORMAL_CHARGE>
0

> <JCHEM_GHOSE_FILTER>
0

> <JCHEM_IUPAC>
2,2,2-trichloroethane-1,1-diol 2-(trimethylazaniumyl)acetate

> <JCHEM_LOGP>
-4.494183842471745

> <JCHEM_MDDR_LIKE_RULE>
0

> <JCHEM_NUMBER_OF_RINGS>
0

> <JCHEM_PHYSIOLOGICAL_CHARGE>
0

> <JCHEM_PKA_STRONGEST_ACIDIC>
2.2595637800263866

> <JCHEM_POLAR_SURFACE_AREA>
40.129999999999995

> <JCHEM_REFRACTIVITY>
52.8234

> <JCHEM_ROTATABLE_BOND_COUNT>
3

> <JCHEM_RULE_OF_FIVE>
1

> <JCHEM_TRADITIONAL_IUPAC>
Bet; chloral hydrate

> <JCHEM_VEBER_RULE>
0

> <DRUGBANK_ID>
DB01494

> <DRUG_GROUPS>
illicit; withdrawn

> <GENERIC_NAME>
Chloral betaine

> <SYNONYMS>
Cloral betaine

> <INTERNATIONAL_BRANDS>
Beta-ChIor

$$$$
1546
  Mrv0541 02231215332D          

 14 15  0  0  1  0            999 V2000
    3.8597   -1.4804    0.0000 N   0  0  0  0  0  0  0  0  0  0  0  0
    5.1795    1.5859    0.0000 N   0  0  0  0  0  0  0  0  0  0  0  0
    4.9232    0.8018    0.0000 C   0  0  0  0  0  0  0  0  0  0  0  0
    4.1159    0.6316    0.0000 C   0  0  0  0  0  0  0  0  0  0  0  0
    3.8597   -0.1526    0.0000 C   0  0  0  0  0  0  0  0  0  0  0  0
    5.4742    0.1877    0.0000 C   0  0  0  0  0  0  0  0  0  0  0  0
    3.0791   -0.4040    0.0000 C   0  0  0  0  0  0  0  0  0  0  0  0
    3.0791   -1.2290    0.0000 C   0  0  0  0  0  0  0  0  0  0  0  0
    4.3412   -0.8165    0.0000 C   0  0  0  0  0  0  0  0  0  0  0  0
    6.2815    0.3578    0.0000 C   0  0  0  0  0  0  0  0  0  0  0  0
    2.3645    0.0085    0.0000 C   0  0  0  0  0  0  0  0  0  0  0  0
    2.3645   -1.6415    0.0000 C   0  0  0  0  0  0  0  0  0  0  0  0
    1.6500   -0.4040    0.0000 C   0  0  0  0  0  0  0  0  0  0  0  0
    1.6500   -1.2290    0.0000 C   0  0  0  0  0  0  0  0  0  0  0  0
  1  8  1  0  0  0  0
  1  9  1  0  0  0  0
  2  3  1  0  0  0  0
  3  4  1  0  0  0  0
  3  6  1  0  0  0  0
  4  5  1  0  0  0  0
  5  7  1  0  0  0  0
  5  9  2  0  0  0  0
  6 10  1  0  0  0  0
  7  8  1  0  0  0  0
  7 11  2  0  0  0  0
  8 12  2  0  0  0  0
 11 13  1  0  0  0  0
 12 14  1  0  0  0  0
 13 14  2  0  0  0  0
M  END
> <DATABASE_ID>
DB01546

> <DATABASE_NAME>
drugbank

> <SMILES>
CCC(N)CC1=CNC2=CC=CC=C12

> <INCHI_IDENTIFIER>
InChI=1S/C12H16N2/c1-2-10(13)7-9-8-14-12-6-4-3-5-11(9)12/h3-6,8,10,14H,2,7,13H2,1H3

> <INCHI_KEY>
ZXUMUPVQYAFTLF-UHFFFAOYSA-N

> <FORMULA>
C12H16N2

> <MOLECULAR_WEIGHT>
188.2688

> <EXACT_MASS>
188.131348522

> <JCHEM_ACCEPTOR_COUNT>
1

> <JCHEM_AVERAGE_POLARIZABILITY>
22.135311906787653

> <JCHEM_BIOAVAILABILITY>
1

> <JCHEM_DONOR_COUNT>
2

> <JCHEM_FORMAL_CHARGE>
0

> <JCHEM_GHOSE_FILTER>
1

> <JCHEM_IUPAC>
1-(1H-indol-3-yl)butan-2-amine

> <ALOGPS_LOGP>
2.55

> <JCHEM_LOGP>
2.425534869666666

> <ALOGPS_LOGS>
-2.59

> <JCHEM_MDDR_LIKE_RULE>
0

> <JCHEM_NUMBER_OF_RINGS>
2

> <JCHEM_PHYSIOLOGICAL_CHARGE>
1

> <JCHEM_PKA_STRONGEST_ACIDIC>
17.134816390438157

> <JCHEM_PKA_STRONGEST_BASIC>
9.99035203699291

> <JCHEM_POLAR_SURFACE_AREA>
41.81

> <JCHEM_REFRACTIVITY>
59.31570000000001

> <JCHEM_ROTATABLE_BOND_COUNT>
3

> <JCHEM_RULE_OF_FIVE>
1

> <ALOGPS_SOLUBILITY>
4.81e-01 g/l

> <JCHEM_TRADITIONAL_IUPAC>
α-ethyltryptamine

> <JCHEM_VEBER_RULE>
0

> <DRUGBANK_ID>
DB01546

> <DRUG_GROUPS>
illicit; investigational; withdrawn

> <GENERIC_NAME>
Etryptamine

> <SYNONYMS>
3-(2-aminobutyl)indole; alpha-ethyltryptamine; α-ethyltryptamine; αET

> <INTERNATIONAL_BRANDS>
Monase 

> <SALTS>
Alpha-ethyltryptamine acetate

$$$$
1550
  Mrv0541 02231215332D          

 14 14  0  0  1  0            999 V2000
    3.0788    0.8249    0.0000 N   0  0  0  0  0  0  0  0  0  0  0  0
    5.2219    2.8873    0.0000 N   0  0  0  0  0  0  0  0  0  0  0  0
    3.0788    0.0000    0.0000 C   0  0  0  0  0  0  0  0  0  0  0  0
    2.3643   -0.4125    0.0000 C   0  0  0  0  0  0  0  0  0  0  0  0
    2.3643   -1.2374    0.0000 C   0  0  0  0  0  0  0  0  0  0  0  0
    3.7932   -0.4125    0.0000 C   0  0  0  0  0  0  0  0  0  0  0  0
    3.7932    1.2374    0.0000 C   0  0  0  0  0  0  0  0  0  0  0  0
    3.0788   -1.6498    0.0000 C   0  0  0  0  0  0  0  0  0  0  0  0
    1.6498   -1.6498    0.0000 C   0  0  0  0  0  0  0  0  0  0  0  0
    3.7932    2.0623    0.0000 C   0  0  0  0  0  0  0  0  0  0  0  0
    3.0788   -2.4749    0.0000 C   0  0  0  0  0  0  0  0  0  0  0  0
    1.6498   -2.4749    0.0000 C   0  0  0  0  0  0  0  0  0  0  0  0
    2.3643   -2.8873    0.0000 C   0  0  0  0  0  0  0  0  0  0  0  0
    4.5076    2.4749    0.0000 C   0  0  0  0  0  0  0  0  0  0  0  0
  1  3  1  0  0  0  0
  1  7  1  0  0  0  0
  2 14  3  0  0  0  0
  3  4  1  0  0  0  0
  3  6  1  0  0  0  0
  4  5  1  0  0  0  0
  5  8  2  0  0  0  0
  5  9  1  0  0  0  0
  7 10  1  0  0  0  0
  8 11  1  0  0  0  0
  9 12  2  0  0  0  0
 10 14  1  0  0  0  0
 11 13  2  0  0  0  0
 12 13  1  0  0  0  0
M  END
> <DATABASE_ID>
DB01550

> <DATABASE_NAME>
drugbank

> <SMILES>
CC(CC1=CC=CC=C1)NCCC#N

> <INCHI_IDENTIFIER>
InChI=1S/C12H16N2/c1-11(14-9-5-8-13)10-12-6-3-2-4-7-12/h2-4,6-7,11,14H,5,9-10H2,1H3

> <INCHI_KEY>
IQUFSXIQAFPIMR-UHFFFAOYSA-N

> <FORMULA>
C12H16N2

> <MOLECULAR_WEIGHT>
188.2688

> <EXACT_MASS>
188.131348522

> <JCHEM_ACCEPTOR_COUNT>
2

> <JCHEM_AVERAGE_POLARIZABILITY>
22.036433201168098

> <JCHEM_BIOAVAILABILITY>
1

> <JCHEM_DONOR_COUNT>
1

> <JCHEM_FORMAL_CHARGE>
0

> <JCHEM_GHOSE_FILTER>
1

> <JCHEM_IUPAC>
3-[(1-phenylpropan-2-yl)amino]propanenitrile

> <ALOGPS_LOGP>
2.14

> <JCHEM_LOGP>
2.0097757866666663

> <ALOGPS_LOGS>
-3.01

> <JCHEM_MDDR_LIKE_RULE>
0

> <JCHEM_NUMBER_OF_RINGS>
1

> <JCHEM_PHYSIOLOGICAL_CHARGE>
1

> <JCHEM_PKA_STRONGEST_BASIC>
7.881537675753346

> <JCHEM_POLAR_SURFACE_AREA>
35.82

> <JCHEM_REFRACTIVITY>
58.24310000000002

> <JCHEM_ROTATABLE_BOND_COUNT>
5

> <JCHEM_RULE_OF_FIVE>
1

> <ALOGPS_SOLUBILITY>
1.84e-01 g/l

> <JCHEM_TRADITIONAL_IUPAC>
fenproporex

> <JCHEM_VEBER_RULE>
1

> <DRUGBANK_ID>
DB01550

> <DRUG_GROUPS>
experimental; illicit; withdrawn

> <GENERIC_NAME>
Fenproporex

> <SYNONYMS>
Femproporex; Fenproporex; Fenproporexum

> <INTERNATIONAL_BRANDS>
Desobesi-M; Feprorex; Lipenan; Salcal

$$$$
1556
  Mrv0541 02231215332D          

 12 12  0  0  0  0            999 V2000
    2.3645   -2.3183    0.0000 Cl  0  0  0  0  0  0  0  0  0  0  0  0
    3.7935    1.8068    0.0000 N   0  0  0  0  0  0  0  0  0  0  0  0
    3.0791    1.3943    0.0000 C   0  0  0  0  0  0  0  0  0  0  0  0
    2.3645    0.9818    0.0000 C   0  0  0  0  0  0  0  0  0  0  0  0
    2.6665    2.1087    0.0000 C   0  0  0  0  0  0  0  0  0  0  0  0
    3.4916    0.6798    0.0000 C   0  0  0  0  0  0  0  0  0  0  0  0
    2.3645    0.1568    0.0000 C   0  0  0  0  0  0  0  0  0  0  0  0
    3.0791   -0.2558    0.0000 C   0  0  0  0  0  0  0  0  0  0  0  0
    1.6500   -0.2558    0.0000 C   0  0  0  0  0  0  0  0  0  0  0  0
    3.0791   -1.0808    0.0000 C   0  0  0  0  0  0  0  0  0  0  0  0
    1.6500   -1.0808    0.0000 C   0  0  0  0  0  0  0  0  0  0  0  0
    2.3645   -1.4933    0.0000 C   0  0  0  0  0  0  0  0  0  0  0  0
  1 12  1  0  0  0  0
  2  3  1  0  0  0  0
  3  4  1  0  0  0  0
  3  5  1  0  0  0  0
  3  6  1  0  0  0  0
  4  7  1  0  0  0  0
  7  8  2  0  0  0  0
  7  9  1  0  0  0  0
  8 10  1  0  0  0  0
  9 11  2  0  0  0  0
 10 12  2  0  0  0  0
 11 12  1  0  0  0  0
M  END
> <DATABASE_ID>
DB01556

> <DATABASE_NAME>
drugbank

> <SMILES>
CC(C)(N)CC1=CC=C(Cl)C=C1

> <INCHI_IDENTIFIER>
InChI=1S/C10H14ClN/c1-10(2,12)7-8-3-5-9(11)6-4-8/h3-6H,7,12H2,1-2H3

> <INCHI_KEY>
ZCKAMNXUHHNZLN-UHFFFAOYSA-N

> <FORMULA>
C10H14ClN

> <MOLECULAR_WEIGHT>
183.678

> <EXACT_MASS>
183.08147716

> <JCHEM_ACCEPTOR_COUNT>
1

> <JCHEM_AVERAGE_POLARIZABILITY>
20.19453270878085

> <JCHEM_BIOAVAILABILITY>
1

> <JCHEM_DONOR_COUNT>
1

> <JCHEM_FORMAL_CHARGE>
0

> <JCHEM_GHOSE_FILTER>
1

> <JCHEM_IUPAC>
1-(4-chlorophenyl)-2-methylpropan-2-amine

> <ALOGPS_LOGP>
2.81

> <JCHEM_LOGP>
2.688871826333333

> <ALOGPS_LOGS>
-3.24

> <JCHEM_MDDR_LIKE_RULE>
0

> <JCHEM_NUMBER_OF_RINGS>
1

> <JCHEM_PHYSIOLOGICAL_CHARGE>
1

> <JCHEM_PKA_STRONGEST_BASIC>
10.237050035938482

> <JCHEM_POLAR_SURFACE_AREA>
26.02

> <JCHEM_REFRACTIVITY>
53.14820000000001

> <JCHEM_ROTATABLE_BOND_COUNT>
2

> <JCHEM_RULE_OF_FIVE>
1

> <ALOGPS_SOLUBILITY>
1.05e-01 g/l

> <JCHEM_TRADITIONAL_IUPAC>
chlorphentermine

> <JCHEM_VEBER_RULE>
1

> <DRUGBANK_ID>
DB01556

> <DRUG_GROUPS>
illicit; withdrawn

> <GENERIC_NAME>
Chlorphentermine

> <SYNONYMS>
4-Chloro-a,a-dimethylbenzeneethanamine; 4-Chloro-a,a-dimethylphenethylamine; a,a-Dimethyl-p-chlorophenethylamine; Chlorphenterminum; Clorfentermina

> <INTERNATIONAL_BRANDS>
Apsedon; Desopimon; Lucofen

> <SALTS>
Chlorphentermine hydrochloride

$$$$
TOL
  Mrv0541 02231216102D          

 24 25  0  0  0  0            999 V2000
   -2.2716   -0.0276    0.0000 C   0  0  0  0  0  0  0  0  0  0  0  0
   -2.9861   -0.4401    0.0000 F   0  0  0  0  0  0  0  0  0  0  0  0
   -1.8591   -0.7421    0.0000 F   0  0  0  0  0  0  0  0  0  0  0  0
   -2.6841    0.6868    0.0000 F   0  0  0  0  0  0  0  0  0  0  0  0
   -1.5571    0.3849    0.0000 C   0  0  0  0  0  0  0  0  0  0  0  0
   -1.5571    1.2099    0.0000 C   0  0  0  0  0  0  0  0  0  0  0  0
   -2.2716    1.6224    0.0000 O   0  0  0  0  0  0  0  0  0  0  0  0
   -2.9861    1.2099    0.0000 C   0  0  0  0  0  0  0  0  0  0  0  0
   -0.8426    1.6224    0.0000 C   0  0  0  0  0  0  0  0  0  0  0  0
   -0.1282    1.2099    0.0000 C   0  0  0  0  0  0  0  0  0  0  0  0
   -0.1282    0.3849    0.0000 C   0  0  0  0  0  0  0  0  0  0  0  0
    0.5863   -0.0276    0.0000 C   0  0  0  0  0  0  0  0  0  0  0  0
    0.5863   -0.8526    0.0000 C   0  0  0  0  0  0  0  0  0  0  0  0
   -0.1282   -1.2651    0.0000 C   0  0  0  0  0  0  0  0  0  0  0  0
   -0.8426   -0.8526    0.0000 C   0  0  0  0  0  0  0  0  0  0  0  0
   -0.8426   -0.0276    0.0000 C   0  0  0  0  0  0  0  0  0  0  0  0
    1.3008    0.3849    0.0000 C   0  0  0  0  0  0  0  0  0  0  0  0
    1.3008    1.2099    0.0000 S   0  0  0  0  0  0  0  0  0  0  0  0
    2.0152   -0.0276    0.0000 N   0  0  0  0  0  0  0  0  0  0  0  0
    2.0152   -0.8526    0.0000 C   0  0  0  0  0  0  0  0  0  0  0  0
    2.7297    0.3849    0.0000 C   0  0  0  0  0  0  0  0  0  0  0  0
    3.4442   -0.0276    0.0000 C   0  0  0  0  0  0  0  0  0  0  0  0
    4.1587    0.3849    0.0000 O   0  0  0  0  0  0  0  0  0  0  0  0
    3.4442   -0.8526    0.0000 O   0  0  0  0  0  0  0  0  0  0  0  0
  1  2  1  0  0  0  0
  1  3  1  0  0  0  0
  1  4  1  0  0  0  0
  1  5  1  0  0  0  0
  5  6  2  0  0  0  0
  5 16  1  0  0  0  0
  6  7  1  0  0  0  0
  6  9  1  0  0  0  0
  7  8  1  0  0  0  0
  9 10  2  0  0  0  0
 10 11  1  0  0  0  0
 11 12  2  0  0  0  0
 11 16  1  0  0  0  0
 12 13  1  0  0  0  0
 12 17  1  0  0  0  0
 13 14  2  0  0  0  0
 14 15  1  0  0  0  0
 15 16  2  0  0  0  0
 17 18  2  0  0  0  0
 17 19  1  0  0  0  0
 19 20  1  0  0  0  0
 19 21  1  0  0  0  0
 21 22  1  0  0  0  0
 22 23  2  0  0  0  0
 22 24  1  0  0  0  0
M  END
> <DATABASE_ID>
DB02383

> <DATABASE_NAME>
drugbank

> <SMILES>
COC1=C(C2=CC=CC(C(=S)N(C)CC(O)=O)=C2C=C1)C(F)(F)F

> <INCHI_IDENTIFIER>
InChI=1S/C16H14F3NO3S/c1-20(8-13(21)22)15(24)11-5-3-4-10-9(11)6-7-12(23-2)14(10)16(17,18)19/h3-7H,8H2,1-2H3,(H,21,22)

> <INCHI_KEY>
LUBHDINQXIHVLS-UHFFFAOYSA-N

> <FORMULA>
C16H14F3NO3S

> <MOLECULAR_WEIGHT>
357.347

> <EXACT_MASS>
357.064648624

> <JCHEM_ACCEPTOR_COUNT>
3

> <JCHEM_AVERAGE_POLARIZABILITY>
32.079275633366706

> <JCHEM_BIOAVAILABILITY>
1

> <JCHEM_DONOR_COUNT>
1

> <JCHEM_FORMAL_CHARGE>
0

> <JCHEM_GHOSE_FILTER>
1

> <JCHEM_IUPAC>
2-{1-[6-methoxy-5-(trifluoromethyl)naphthalen-1-yl]-N-methylmethanethioamido}acetic acid

> <ALOGPS_LOGP>
3.25

> <JCHEM_LOGP>
3.3487451069999996

> <ALOGPS_LOGS>
-4.67

> <JCHEM_MDDR_LIKE_RULE>
0

> <JCHEM_NUMBER_OF_RINGS>
2

> <JCHEM_PHYSIOLOGICAL_CHARGE>
-1

> <JCHEM_PKA_STRONGEST_ACIDIC>
3.948939873488597

> <JCHEM_PKA_STRONGEST_BASIC>
-2.994274014991078

> <JCHEM_POLAR_SURFACE_AREA>
49.769999999999996

> <JCHEM_REFRACTIVITY>
87.89240000000001

> <JCHEM_ROTATABLE_BOND_COUNT>
5

> <JCHEM_RULE_OF_FIVE>
1

> <ALOGPS_SOLUBILITY>
7.60e-03 g/l

> <JCHEM_TRADITIONAL_IUPAC>
tolrestat

> <JCHEM_VEBER_RULE>
0

> <DRUGBANK_ID>
DB02383

> <SECONDARY_ACCESSION_NUMBERS>
EXPT03082

> <DRUG_GROUPS>
withdrawn

> <GENERIC_NAME>
Tolrestat

> <SYNONYMS>
Tolrestat

> <INTERNATIONAL_BRANDS>
Alredase

$$$$
3585
  Mrv0541 02231217022D          

 24 26  0  0  1  0            999 V2000
    1.6500   -0.0480    0.0000 O   0  0  0  0  0  0  0  0  0  0  0  0
    3.9995    1.6590    0.0000 O   0  0  0  0  0  0  0  0  0  0  0  0
    3.1021   -3.5780    0.0000 O   0  0  0  0  0  0  0  0  0  0  0  0
    3.1021   -0.2780    0.0000 N   0  0  0  0  0  0  0  0  0  0  0  0
    3.7695    0.2069    0.0000 N   0  0  0  0  0  0  0  0  0  0  0  0
    2.6896    0.9916    0.0000 C   0  0  0  0  0  0  0  0  0  0  0  0
    2.2047    1.6590    0.0000 C   0  0  0  0  0  0  0  0  0  0  0  0
    2.4347    0.2069    0.0000 C   0  0  0  0  0  0  0  0  0  0  0  0
    3.5146    0.9916    0.0000 C   0  0  0  0  0  0  0  0  0  0  0  0
    2.5402    2.4126    0.0000 C   0  0  0  0  0  0  0  0  0  0  0  0
    2.0553    3.0801    0.0000 C   0  0  0  0  0  0  0  0  0  0  0  0
    3.1021   -1.1030    0.0000 C   0  0  0  0  0  0  0  0  0  0  0  0
    4.5541   -0.0480    0.0000 C   0  0  0  0  0  0  0  0  0  0  0  0
    2.3909    3.8338    0.0000 C   0  0  0  0  0  0  0  0  0  0  0  0
    3.8166   -1.5155    0.0000 C   0  0  0  0  0  0  0  0  0  0  0  0
    2.3876   -1.5155    0.0000 C   0  0  0  0  0  0  0  0  0  0  0  0
    5.1672    0.5040    0.0000 C   0  0  0  0  0  0  0  0  0  0  0  0
    4.7257   -0.8550    0.0000 C   0  0  0  0  0  0  0  0  0  0  0  0
    3.8166   -2.3405    0.0000 C   0  0  0  0  0  0  0  0  0  0  0  0
    2.3876   -2.3405    0.0000 C   0  0  0  0  0  0  0  0  0  0  0  0
    5.9518    0.2491    0.0000 C   0  0  0  0  0  0  0  0  0  0  0  0
    5.5103   -1.1100    0.0000 C   0  0  0  0  0  0  0  0  0  0  0  0
    3.1021   -2.7530    0.0000 C   0  0  0  0  0  0  0  0  0  0  0  0
    6.1234   -0.5579    0.0000 C   0  0  0  0  0  0  0  0  0  0  0  0
  1  8  2  0  0  0  0
  2  9  2  0  0  0  0
  3 23  1  0  0  0  0
  4  5  1  0  0  0  0
  4  8  1  0  0  0  0
  4 12  1  0  0  0  0
  5  9  1  0  0  0  0
  5 13  1  0  0  0  0
  6  7  1  0  0  0  0
  6  8  1  0  0  0  0
  6  9  1  0  0  0  0
  7 10  1  0  0  0  0
 10 11  1  0  0  0  0
 11 14  1  0  0  0  0
 12 15  2  0  0  0  0
 12 16  1  0  0  0  0
 13 17  2  0  0  0  0
 13 18  1  0  0  0  0
 15 19  1  0  0  0  0
 16 20  2  0  0  0  0
 17 21  1  0  0  0  0
 18 22  2  0  0  0  0
 19 23  2  0  0  0  0
 20 23  1  0  0  0  0
 21 24  2  0  0  0  0
 22 24  1  0  0  0  0
M  END
> <DATABASE_ID>
DB03585

> <DATABASE_NAME>
drugbank

> <SMILES>
CCCCC1C(=O)N(N(C1=O)C1=CC=C(O)C=C1)C1=CC=CC=C1

> <INCHI_IDENTIFIER>
InChI=1S/C19H20N2O3/c1-2-3-9-17-18(23)20(14-7-5-4-6-8-14)21(19(17)24)15-10-12-16(22)13-11-15/h4-8,10-13,17,22H,2-3,9H2,1H3

> <INCHI_KEY>
HFHZKZSRXITVMK-UHFFFAOYSA-N

> <FORMULA>
C19H20N2O3

> <MOLECULAR_WEIGHT>
324.3737

> <EXACT_MASS>
324.147392516

> <JCHEM_ACCEPTOR_COUNT>
3

> <JCHEM_AVERAGE_POLARIZABILITY>
35.14453215698653

> <JCHEM_BIOAVAILABILITY>
1

> <JCHEM_DONOR_COUNT>
1

> <JCHEM_FORMAL_CHARGE>
0

> <JCHEM_GHOSE_FILTER>
1

> <JCHEM_IUPAC>
4-butyl-1-(4-hydroxyphenyl)-2-phenylpyrazolidine-3,5-dione

> <ALOGPS_LOGP>
2.79

> <JCHEM_LOGP>
3.8322324440000006

> <ALOGPS_LOGS>
-3.10

> <JCHEM_MDDR_LIKE_RULE>
0

> <JCHEM_NUMBER_OF_RINGS>
3

> <JCHEM_PHYSIOLOGICAL_CHARGE>
-1

> <JCHEM_PKA>
9.28657300059134

> <JCHEM_PKA_STRONGEST_ACIDIC>
4.8666588523311844

> <JCHEM_PKA_STRONGEST_BASIC>
-5.968036895068672

> <JCHEM_POLAR_SURFACE_AREA>
60.85000000000001

> <JCHEM_REFRACTIVITY>
90.73920000000003

> <JCHEM_ROTATABLE_BOND_COUNT>
5

> <JCHEM_RULE_OF_FIVE>
1

> <ALOGPS_SOLUBILITY>
2.56e-01 g/l

> <JCHEM_TRADITIONAL_IUPAC>
oxyphenbutazone

> <JCHEM_VEBER_RULE>
0

> <DRUGBANK_ID>
DB03585

> <SECONDARY_ACCESSION_NUMBERS>
EXPT02440

> <DRUG_GROUPS>
approved; withdrawn

> <GENERIC_NAME>
Oxyphenbutazone

> <SYNONYMS>
Oxifenbutazona; Oxiphenbutazone; Oxyphenbutazone; Oxyphenbutazonum

> <PRODUCTS>
Oxybutazone Tab 100mg; Oxyphenbutazone 100mg Tablets

> <INTERNATIONAL_BRANDS>
Oxyphenbutazone; Reozon

> <SALTS>
Oxyphenbutazone monohydrate

$$$$
3783
  Mrv0541 02231217112D          

 13 13  0  0  0  0            999 V2000
    2.3644   -1.6500    0.0000 O   0  0  0  0  0  0  0  0  0  0  0  0
    3.7934    1.6500    0.0000 O   0  0  0  0  0  0  0  0  0  0  0  0
    2.3644    1.6500    0.0000 N   0  0  0  0  0  0  0  0  0  0  0  0
    2.3644    0.8250    0.0000 C   0  0  0  0  0  0  0  0  0  0  0  0
    2.3644   -0.8250    0.0000 C   0  0  0  0  0  0  0  0  0  0  0  0
    3.0790    0.4125    0.0000 C   0  0  0  0  0  0  0  0  0  0  0  0
    1.6500    0.4125    0.0000 C   0  0  0  0  0  0  0  0  0  0  0  0
    3.0790   -0.4125    0.0000 C   0  0  0  0  0  0  0  0  0  0  0  0
    1.6500   -0.4125    0.0000 C   0  0  0  0  0  0  0  0  0  0  0  0
    1.6500   -2.0625    0.0000 C   0  0  0  0  0  0  0  0  0  0  0  0
    1.6500   -2.8875    0.0000 C   0  0  0  0  0  0  0  0  0  0  0  0
    3.0790    2.0625    0.0000 C   0  0  0  0  0  0  0  0  0  0  0  0
    3.0790    2.8875    0.0000 C   0  0  0  0  0  0  0  0  0  0  0  0
  1  5  1  0  0  0  0
  1 10  1  0  0  0  0
  2 12  2  0  0  0  0
  3  4  1  0  0  0  0
  3 12  1  0  0  0  0
  4  6  2  0  0  0  0
  4  7  1  0  0  0  0
  5  8  2  0  0  0  0
  5  9  1  0  0  0  0
  6  8  1  0  0  0  0
  7  9  2  0  0  0  0
 10 11  1  0  0  0  0
 12 13  1  0  0  0  0
M  END
> <DATABASE_ID>
DB03783

> <DATABASE_NAME>
drugbank

> <SMILES>
CCOC1=CC=C(NC(C)=O)C=C1

> <INCHI_IDENTIFIER>
InChI=1S/C10H13NO2/c1-3-13-10-6-4-9(5-7-10)11-8(2)12/h4-7H,3H2,1-2H3,(H,11,12)

> <INCHI_KEY>
CPJSUEIXXCENMM-UHFFFAOYSA-N

> <FORMULA>
C10H13NO2

> <MOLECULAR_WEIGHT>
179.2157

> <EXACT_MASS>
179.094628665

> <JCHEM_ACCEPTOR_COUNT>
2

> <JCHEM_AVERAGE_POLARIZABILITY>
19.820611792352402

> <JCHEM_BIOAVAILABILITY>
1

> <JCHEM_DONOR_COUNT>
1

> <JCHEM_FORMAL_CHARGE>
0

> <JCHEM_GHOSE_FILTER>
1

> <JCHEM_IUPAC>
N-(4-ethoxyphenyl)acetamide

> <ALOGPS_LOGP>
1.62

> <JCHEM_LOGP>
1.4100928723333332

> <ALOGPS_LOGS>
-2.00

> <JCHEM_MDDR_LIKE_RULE>
0

> <JCHEM_NUMBER_OF_RINGS>
1

> <JCHEM_PHYSIOLOGICAL_CHARGE>
0

> <JCHEM_PKA_STRONGEST_ACIDIC>
14.978986347794297

> <JCHEM_PKA_STRONGEST_BASIC>
-4.237178123843566

> <JCHEM_POLAR_SURFACE_AREA>
38.33

> <JCHEM_REFRACTIVITY>
52.1328

> <JCHEM_ROTATABLE_BOND_COUNT>
3

> <JCHEM_RULE_OF_FIVE>
1

> <ALOGPS_SOLUBILITY>
1.78e+00 g/l

> <JCHEM_TRADITIONAL_IUPAC>
phenacetin

> <JCHEM_VEBER_RULE>
1

> <DRUGBANK_ID>
DB03783

> <SECONDARY_ACCESSION_NUMBERS>
EXPT03306; DB08243

> <DRUG_GROUPS>
withdrawn

> <GENERIC_NAME>
Phenacetin

> <SYNONYMS>
Acetophenetidin; Acetophenetidine; Acetophenetin; Acetphenetidin; Fenacetina; Phenacetin

> <INTERNATIONAL_BRANDS>
Achrocidin; Codempiral; Commotional; Contradol; Contradouleur

$$$$
[NO NAME]
  Mrv0541 04301222212D          
Created with ChemWriter - http://chemwriter.com
 21 22  0  0  0  0            999 V2000
    0.0000    0.8250    0.0000 O   0  0  0  0  0  0  0  0  0  0  0  0
    0.7145    0.4125    0.0000 C   0  0  0  0  0  0  0  0  0  0  0  0
   -0.7145   -0.4125    0.0000 C   0  0  0  0  0  0  0  0  0  0  0  0
   -0.7145    0.4125    0.0000 C   0  0  0  0  0  0  0  0  0  0  0  0
    0.7145   -0.4125    0.0000 C   0  0  0  0  0  0  0  0  0  0  0  0
   -1.4289    0.8250    0.0000 C   0  0  0  0  0  0  0  0  0  0  0  0
   -2.1434    0.4125    0.0000 C   0  0  0  0  0  0  0  0  0  0  0  0
   -2.1434   -0.4125    0.0000 C   0  0  0  0  0  0  0  0  0  0  0  0
   -1.4289   -0.8250    0.0000 C   0  0  0  0  0  0  0  0  0  0  0  0
    2.1434   -0.4125    0.0000 C   0  0  0  0  0  0  0  0  0  0  0  0
    2.1434    0.4125    0.0000 C   0  0  0  0  0  0  0  0  0  0  0  0
    1.4290   -0.8250    0.0000 C   0  0  0  0  0  0  0  0  0  0  0  0
    2.1433   -2.0625    0.0000 O   0  5  0  0  0  0  0  0  0  0  0  0
    1.4290   -1.6500    0.0000 N   0  3  0  0  0  0  0  0  0  0  0  0
    0.7144   -2.0625    0.0000 O   0  0  0  0  0  0  0  0  0  0  0  0
    1.4290    0.8250    0.0000 C   0  0  0  0  0  0  0  0  0  0  0  0
    1.4290    1.6500    0.0000 N   0  0  0  0  0  0  0  0  0  0  0  0
    2.1434    2.0625    0.0000 S   0  0  0  0  0  0  0  0  0  0  0  0
    2.1434    1.2375    0.0000 O   0  0  0  0  0  0  0  0  0  0  0  0
    2.1434    2.8875    0.0000 O   0  0  0  0  0  0  0  0  0  0  0  0
    2.8579    1.6499    0.0000 C   0  0  0  0  0  0  0  0  0  0  0  0
  1  2  1  0  0  0  0
 16  2  2  0  0  0  0
  9  3  2  0  0  0  0
  3  4  1  0  0  0  0
  4  1  1  0  0  0  0
  6  4  2  0  0  0  0
  2  5  1  0  0  0  0
  5 12  2  0  0  0  0
  6  7  1  0  0  0  0
  7  8  2  0  0  0  0
  8  9  1  0  0  0  0
 12 10  1  0  0  0  0
 10 11  2  0  0  0  0
 16 11  1  0  0  0  0
 12 14  1  0  0  0  0
 14 13  1  0  0  0  0
 14 15  2  0  0  0  0
 16 17  1  0  0  0  0
 17 18  1  0  0  0  0
 18 20  2  0  0  0  0
 18 21  1  0  0  0  0
 18 19  2  0  0  0  0
M  CHG  2  13  -1  14   1
M  END
> <DATABASE_ID>
DB04743

> <DATABASE_NAME>
drugbank

> <SMILES>
CS(=O)(=O)NC1=C(OC2=CC=CC=C2)C=C(C=C1)[N+]([O-])=O

> <INCHI_IDENTIFIER>
InChI=1S/C13H12N2O5S/c1-21(18,19)14-12-8-7-10(15(16)17)9-13(12)20-11-5-3-2-4-6-11/h2-9,14H,1H3

> <INCHI_KEY>
HYWYRSMBCFDLJT-UHFFFAOYSA-N

> <FORMULA>
C13H12N2O5S

> <MOLECULAR_WEIGHT>
308.31

> <EXACT_MASS>
308.046692194

> <JCHEM_ACCEPTOR_COUNT>
4

> <JCHEM_AVERAGE_POLARIZABILITY>
28.872423548287472

> <JCHEM_BIOAVAILABILITY>
1

> <JCHEM_DONOR_COUNT>
1

> <JCHEM_FORMAL_CHARGE>
0

> <JCHEM_GHOSE_FILTER>
1

> <JCHEM_IUPAC>
N-(4-nitro-2-phenoxyphenyl)methanesulfonamide

> <ALOGPS_LOGP>
2.56

> <JCHEM_LOGP>
1.7866563706666665

> <ALOGPS_LOGS>
-4.23

> <JCHEM_MDDR_LIKE_RULE>
0

> <JCHEM_NUMBER_OF_RINGS>
2

> <JCHEM_PHYSIOLOGICAL_CHARGE>
-1

> <JCHEM_PKA_STRONGEST_ACIDIC>
6.855871203275389

> <JCHEM_PKA_STRONGEST_BASIC>
-8.913623712767949

> <JCHEM_POLAR_SURFACE_AREA>
101.22

> <JCHEM_REFRACTIVITY>
76.30669999999999

> <JCHEM_ROTATABLE_BOND_COUNT>
4

> <JCHEM_RULE_OF_FIVE>
1

> <ALOGPS_SOLUBILITY>
1.82e-02 g/l

> <JCHEM_TRADITIONAL_IUPAC>
nimesulide

> <JCHEM_VEBER_RULE>
0

> <DRUGBANK_ID>
DB04743

> <DRUG_GROUPS>
approved; investigational; withdrawn

> <GENERIC_NAME>
Nimesulide

> <SYNONYMS>
Nimesulida; Nimesulide; Nimesulidum

> <INTERNATIONAL_BRANDS>
Ainex; Aulin; Eskaflam; Mesulid; Nilsid; Nimalox; Nise; Sulide

$$$$
4812
  Mrv0541 02231217562D          

 21 23  0  0  1  0            999 V2000
   10.2277   -0.4125    0.0000 Cl  0  0  0  0  0  0  0  0  0  0  0  0
    6.4461   -1.0764    0.0000 O   0  0  0  0  0  0  0  0  0  0  0  0
    2.0930    0.4125    0.0000 O   0  0  0  0  0  0  0  0  0  0  0  0
    2.8075   -0.8250    0.0000 O   0  0  0  0  0  0  0  0  0  0  0  0
    6.4461    0.2514    0.0000 N   0  0  0  0  0  0  0  0  0  0  0  0
    3.5220    0.4125    0.0000 C   0  0  0  0  0  0  0  0  0  0  0  0
    4.2365    0.0000    0.0000 C   0  0  0  0  0  0  0  0  0  0  0  0
    5.6655    0.0000    0.0000 C   0  0  0  0  0  0  0  0  0  0  0  0
    4.9509    0.4125    0.0000 C   0  0  0  0  0  0  0  0  0  0  0  0
    5.6655   -0.8250    0.0000 C   0  0  0  0  0  0  0  0  0  0  0  0
    4.2365   -0.8250    0.0000 C   0  0  0  0  0  0  0  0  0  0  0  0
    4.9509   -1.2375    0.0000 C   0  0  0  0  0  0  0  0  0  0  0  0
    3.5220    1.2375    0.0000 C   0  0  0  0  0  0  0  0  0  0  0  0
    6.9276   -0.4125    0.0000 C   0  0  0  0  0  0  0  0  0  0  0  0
    7.7526   -0.4125    0.0000 C   0  0  0  0  0  0  0  0  0  0  0  0
    2.8075    0.0000    0.0000 C   0  0  0  0  0  0  0  0  0  0  0  0
    8.1651    0.3020    0.0000 C   0  0  0  0  0  0  0  0  0  0  0  0
    8.1651   -1.1270    0.0000 C   0  0  0  0  0  0  0  0  0  0  0  0
    8.9901    0.3020    0.0000 C   0  0  0  0  0  0  0  0  0  0  0  0
    8.9901   -1.1270    0.0000 C   0  0  0  0  0  0  0  0  0  0  0  0
    9.4026   -0.4125    0.0000 C   0  0  0  0  0  0  0  0  0  0  0  0
  1 21  1  0  0  0  0
  2 10  1  0  0  0  0
  2 14  1  0  0  0  0
  3 16  1  0  0  0  0
  4 16  2  0  0  0  0
  5  8  1  0  0  0  0
  5 14  2  0  0  0  0
  6  7  1  0  0  0  0
  6 13  1  0  0  0  0
  6 16  1  0  0  0  0
  7  9  2  0  0  0  0
  7 11  1  0  0  0  0
  8  9  1  0  0  0  0
  8 10  2  0  0  0  0
 10 12  1  0  0  0  0
 11 12  2  0  0  0  0
 14 15  1  0  0  0  0
 15 17  2  0  0  0  0
 15 18  1  0  0  0  0
 17 19  1  0  0  0  0
 18 20  2  0  0  0  0
 19 21  2  0  0  0  0
 20 21  1  0  0  0  0
M  END
> <DATABASE_ID>
DB04812

> <DATABASE_NAME>
drugbank

> <SMILES>
CC(C(O)=O)C1=CC2=C(OC(=N2)C2=CC=C(Cl)C=C2)C=C1

> <INCHI_IDENTIFIER>
InChI=1S/C16H12ClNO3/c1-9(16(19)20)11-4-7-14-13(8-11)18-15(21-14)10-2-5-12(17)6-3-10/h2-9H,1H3,(H,19,20)

> <INCHI_KEY>
MITFXPHMIHQXPI-UHFFFAOYSA-N

> <FORMULA>
C16H12ClNO3

> <MOLECULAR_WEIGHT>
301.724

> <EXACT_MASS>
301.050570962

> <JCHEM_ACCEPTOR_COUNT>
3

> <JCHEM_AVERAGE_POLARIZABILITY>
31.3376320166972

> <JCHEM_BIOAVAILABILITY>
1

> <JCHEM_DONOR_COUNT>
1

> <JCHEM_FORMAL_CHARGE>
0

> <JCHEM_GHOSE_FILTER>
1

> <JCHEM_IUPAC>
2-[2-(4-chlorophenyl)-1,3-benzoxazol-5-yl]propanoic acid

> <ALOGPS_LOGP>
4.22

> <JCHEM_LOGP>
4.1294149

> <ALOGPS_LOGS>
-3.98

> <JCHEM_MDDR_LIKE_RULE>
0

> <JCHEM_NUMBER_OF_RINGS>
3

> <JCHEM_PHYSIOLOGICAL_CHARGE>
-1

> <JCHEM_PKA_STRONGEST_ACIDIC>
4.65678429357589

> <JCHEM_PKA_STRONGEST_BASIC>
0.09072018781816582

> <JCHEM_POLAR_SURFACE_AREA>
63.330000000000005

> <JCHEM_REFRACTIVITY>
88.51160000000002

> <JCHEM_ROTATABLE_BOND_COUNT>
3

> <JCHEM_RULE_OF_FIVE>
1

> <ALOGPS_SOLUBILITY>
3.17e-02 g/l

> <JCHEM_TRADITIONAL_IUPAC>
benoxaprofen

> <JCHEM_VEBER_RULE>
0

> <DRUGBANK_ID>
DB04812

> <DRUG_GROUPS>
approved; withdrawn

> <GENERIC_NAME>
Benoxaprofen

> <SYNONYMS>
(±)-benoxaprofen; (1)-2-(4-Chlorophenyl)benzoxazole-5-propionic acid; 2-(4-Chlorophenyl)-alpha-methyl-5-benzoxazoleacetic acid; 2-(4-chlorophenyl)-α-methyl-5-benzoxazoleacetic acid; 2-(p-chlorophenyl)-α-methyl-5-benzoxazoleacetic acid; Benoxaprofen; Benoxaprofene; Benoxaprofeno; Benoxaprofenum; DL-benoxaprofen

> <INTERNATIONAL_BRANDS>
Coxigon; Inflamid; Opren; Oraflex

$$$$
4813
  Mrv0541 02231217562D          

 19 20  0  0  0  0            999 V2000
    4.9509    2.4751    0.0000 Cl  0  0  0  0  0  0  0  0  0  0  0  0
    2.0930   -2.4751    0.0000 Cl  0  0  0  0  0  0  0  0  0  0  0  0
    6.3799    0.0000    0.0000 Cl  0  0  0  0  0  0  0  0  0  0  0  0
    4.9509   -2.4751    0.0000 Cl  0  0  0  0  0  0  0  0  0  0  0  0
    3.5220    0.0000    0.0000 S   0  0  0  0  0  0  0  0  0  0  0  0
    3.5220    1.6500    0.0000 O   0  0  0  0  0  0  0  0  0  0  0  0
    2.0930   -0.8250    0.0000 O   0  0  0  0  0  0  0  0  0  0  0  0
    4.2365    0.4125    0.0000 C   0  0  0  0  0  0  0  0  0  0  0  0
    3.5220   -0.8250    0.0000 C   0  0  0  0  0  0  0  0  0  0  0  0
    4.2365    1.2375    0.0000 C   0  0  0  0  0  0  0  0  0  0  0  0
    2.8075   -1.2375    0.0000 C   0  0  0  0  0  0  0  0  0  0  0  0
    4.9509    0.0000    0.0000 C   0  0  0  0  0  0  0  0  0  0  0  0
    4.2365   -1.2375    0.0000 C   0  0  0  0  0  0  0  0  0  0  0  0
    4.9509    1.6500    0.0000 C   0  0  0  0  0  0  0  0  0  0  0  0
    2.8075   -2.0625    0.0000 C   0  0  0  0  0  0  0  0  0  0  0  0
    5.6655    0.4125    0.0000 C   0  0  0  0  0  0  0  0  0  0  0  0
    4.2365   -2.0625    0.0000 C   0  0  0  0  0  0  0  0  0  0  0  0
    5.6655    1.2375    0.0000 C   0  0  0  0  0  0  0  0  0  0  0  0
    3.5220   -2.4751    0.0000 C   0  0  0  0  0  0  0  0  0  0  0  0
  1 14  1  0  0  0  0
  2 15  1  0  0  0  0
  3 16  1  0  0  0  0
  4 17  1  0  0  0  0
  5  8  1  0  0  0  0
  5  9  1  0  0  0  0
  6 10  1  0  0  0  0
  7 11  1  0  0  0  0
  8 10  2  0  0  0  0
  8 12  1  0  0  0  0
  9 11  2  0  0  0  0
  9 13  1  0  0  0  0
 10 14  1  0  0  0  0
 11 15  1  0  0  0  0
 12 16  2  0  0  0  0
 13 17  2  0  0  0  0
 14 18  2  0  0  0  0
 15 19  2  0  0  0  0
 16 18  1  0  0  0  0
 17 19  1  0  0  0  0
M  END
> <DATABASE_ID>
DB04813

> <DATABASE_NAME>
drugbank

> <SMILES>
OC1=C(SC2=C(O)C(Cl)=CC(Cl)=C2)C=C(Cl)C=C1Cl

> <INCHI_IDENTIFIER>
InChI=1S/C12H6Cl4O2S/c13-5-1-7(15)11(17)9(3-5)19-10-4-6(14)2-8(16)12(10)18/h1-4,17-18H

> <INCHI_KEY>
JFIOVJDNOJYLKP-UHFFFAOYSA-N

> <FORMULA>
C12H6Cl4O2S

> <MOLECULAR_WEIGHT>
356.052

> <EXACT_MASS>
353.884260954

> <JCHEM_ACCEPTOR_COUNT>
2

> <JCHEM_AVERAGE_POLARIZABILITY>
31.299442100015398

> <JCHEM_BIOAVAILABILITY>
1

> <JCHEM_DONOR_COUNT>
2

> <JCHEM_FORMAL_CHARGE>
0

> <JCHEM_GHOSE_FILTER>
0

> <JCHEM_IUPAC>
2,4-dichloro-6-[(3,5-dichloro-2-hydroxyphenyl)sulfanyl]phenol

> <ALOGPS_LOGP>
6.12

> <JCHEM_LOGP>
5.971043341666666

> <ALOGPS_LOGS>
-5.33

> <JCHEM_MDDR_LIKE_RULE>
0

> <JCHEM_NUMBER_OF_RINGS>
2

> <JCHEM_PHYSIOLOGICAL_CHARGE>
-1

> <JCHEM_PKA>
8.532974262311745

> <JCHEM_PKA_STRONGEST_ACIDIC>
4.886164253814898

> <JCHEM_PKA_STRONGEST_BASIC>
-7.2322309612046505

> <JCHEM_POLAR_SURFACE_AREA>
40.46

> <JCHEM_REFRACTIVITY>
81.92310000000002

> <JCHEM_ROTATABLE_BOND_COUNT>
2

> <JCHEM_RULE_OF_FIVE>
0

> <ALOGPS_SOLUBILITY>
1.66e-03 g/l

> <JCHEM_TRADITIONAL_IUPAC>
bitin

> <JCHEM_VEBER_RULE>
0

> <DRUGBANK_ID>
DB04813

> <DRUG_GROUPS>
approved; withdrawn

> <GENERIC_NAME>
Bithionol

> <SYNONYMS>
2-Hydroxy-3,5-dichlorophenyl sulfide; 2-Hydroxy-3,5-dichlorophenyl sulphide; 2,2'-Dihydroxy-3,3',5,5'-tetrachlorodiphenyl sulfide; 2,2'-Dihydroxy-3,3',5,5'-tetrachlorodiphenylsulfide; 2,2'-sulfanediylbis(4,6-dichlorophenol); 2,2'-Thiobis(4,6-dichlorophenol); Bis(3,5-dichloro-2-hydroxyphenyl) sulfide; Bithionol; Bithionol sulfide; Bithionolate; Bithionolum; Bitionol

> <INTERNATIONAL_BRANDS>
Actamer; Bidiphen; Bisoxyphen; Bithin; Bitin; Lorothidol; Lorothiodol; Neopellis; Nobacter; Vancide BL

> <SALTS>
Bithionolate sodium

$$$$
4814
  Mrv0541 02231217562D          

 22 22  0  0  0  0            999 V2000
    3.0791    0.5693    0.0000 I   0  0  0  0  0  0  0  0  0  0  0  0
    4.5080   -1.9058    0.0000 I   0  0  0  0  0  0  0  0  0  0  0  0
    5.9370    0.5693    0.0000 I   0  0  0  0  0  0  0  0  0  0  0  0
    3.7935   -2.3183    0.0000 O   0  0  0  0  0  0  0  0  0  0  0  0
    5.9370    3.0443    0.0000 O   0  0  0  0  0  0  0  0  0  0  0  0
    4.5080    3.0443    0.0000 O   0  0  0  0  0  0  0  0  0  0  0  0
    3.0791   -1.0808    0.0000 N   0  0  0  0  0  0  0  0  0  0  0  0
    2.3645   -2.3183    0.0000 C   0  0  0  0  0  0  0  0  0  0  0  0
    3.7935   -0.6683    0.0000 C   0  0  0  0  0  0  0  0  0  0  0  0
    4.5080    0.5693    0.0000 C   0  0  0  0  0  0  0  0  0  0  0  0
    2.3645   -3.1433    0.0000 C   0  0  0  0  0  0  0  0  0  0  0  0
    3.7935    0.1568    0.0000 C   0  0  0  0  0  0  0  0  0  0  0  0
    3.0791   -1.9058    0.0000 C   0  0  0  0  0  0  0  0  0  0  0  0
    4.5080    1.3943    0.0000 C   0  0  0  0  0  0  0  0  0  0  0  0
    5.2224    1.8068    0.0000 C   0  0  0  0  0  0  0  0  0  0  0  0
    4.5080   -1.0808    0.0000 C   0  0  0  0  0  0  0  0  0  0  0  0
    5.2224    0.1568    0.0000 C   0  0  0  0  0  0  0  0  0  0  0  0
    5.9370    1.3943    0.0000 C   0  0  0  0  0  0  0  0  0  0  0  0
    5.2224   -0.6683    0.0000 C   0  0  0  0  0  0  0  0  0  0  0  0
    1.6500   -3.5558    0.0000 C   0  0  0  0  0  0  0  0  0  0  0  0
    6.6515    1.8068    0.0000 C   0  0  0  0  0  0  0  0  0  0  0  0
    5.2224    2.6318    0.0000 C   0  0  0  0  0  0  0  0  0  0  0  0
  1 12  1  0  0  0  0
  2 16  1  0  0  0  0
  3 17  1  0  0  0  0
  4 13  2  0  0  0  0
  5 22  1  0  0  0  0
  6 22  2  0  0  0  0
  7  9  1  0  0  0  0
  7 13  1  0  0  0  0
  8 11  1  0  0  0  0
  8 13  1  0  0  0  0
  9 12  1  0  0  0  0
  9 16  2  0  0  0  0
 10 12  2  0  0  0  0
 10 14  1  0  0  0  0
 10 17  1  0  0  0  0
 11 20  1  0  0  0  0
 14 15  2  0  0  0  0
 15 18  1  0  0  0  0
 15 22  1  0  0  0  0
 16 19  1  0  0  0  0
 17 19  2  0  0  0  0
 18 21  1  0  0  0  0
M  END
> <DATABASE_ID>
DB04814

> <DATABASE_NAME>
drugbank

> <SMILES>
CCCC(=O)NC1=C(I)C=C(I)C(\C=C(/CC)C(O)=O)=C1I

> <INCHI_IDENTIFIER>
InChI=1S/C15H16I3NO3/c1-3-5-12(20)19-14-11(17)7-10(16)9(13(14)18)6-8(4-2)15(21)22/h6-7H,3-5H2,1-2H3,(H,19,20)(H,21,22)/b8-6+

> <INCHI_KEY>
CWRBDUIQDIHWJZ-SOFGYWHQSA-N

> <FORMULA>
C15H16I3NO3

> <MOLECULAR_WEIGHT>
639.0059

> <EXACT_MASS>
638.826423643

> <JCHEM_ACCEPTOR_COUNT>
3

> <JCHEM_AVERAGE_POLARIZABILITY>
43.50046460197656

> <JCHEM_BIOAVAILABILITY>
0

> <JCHEM_DONOR_COUNT>
2

> <JCHEM_FORMAL_CHARGE>
0

> <JCHEM_GHOSE_FILTER>
0

> <JCHEM_IUPAC>
(2E)-2-[(3-butanamido-2,4,6-triiodophenyl)methylidene]butanoic acid

> <ALOGPS_LOGP>
4.10

> <JCHEM_LOGP>
6.145853728666666

> <ALOGPS_LOGS>
-5.44

> <JCHEM_MDDR_LIKE_RULE>
0

> <JCHEM_NUMBER_OF_RINGS>
1

> <JCHEM_PHYSIOLOGICAL_CHARGE>
-1

> <JCHEM_PKA>
12.12443869467981

> <JCHEM_PKA_STRONGEST_ACIDIC>
2.3722717631281243

> <JCHEM_PKA_STRONGEST_BASIC>
-3.949222833008012

> <JCHEM_POLAR_SURFACE_AREA>
66.39999999999999

> <JCHEM_REFRACTIVITY>
116.19639999999998

> <JCHEM_ROTATABLE_BOND_COUNT>
6

> <JCHEM_RULE_OF_FIVE>
0

> <ALOGPS_SOLUBILITY>
2.30e-03 g/l

> <JCHEM_TRADITIONAL_IUPAC>
bunamiodyl

> <JCHEM_VEBER_RULE>
0

> <DRUGBANK_ID>
DB04814

> <DRUG_GROUPS>
withdrawn

> <GENERIC_NAME>
Bunamiodyl

> <SYNONYMS>
2-(3-Butyramido-3,4,6-triiodophenylmethylene)butyric acid; Bunamiodilo; Bunamiodylum

$$$$
4815
  Mrv0541 02231217562D          

 13 14  0  0  0  0            999 V2000
    1.6498   -0.6970    0.0000 I   0  0  0  0  0  0  0  0  0  0  0  0
    3.0786    1.7777    0.0000 Cl  0  0  0  0  0  0  0  0  0  0  0  0
    3.0786   -1.5219    0.0000 O   0  0  0  0  0  0  0  0  0  0  0  0
    4.5303   -0.7257    0.0000 N   0  0  0  0  0  0  0  0  0  0  0  0
    3.7929    0.5403    0.0000 C   0  0  0  0  0  0  0  0  0  0  0  0
    3.7929   -0.2846    0.0000 C   0  0  0  0  0  0  0  0  0  0  0  0
    3.0786   -0.6970    0.0000 C   0  0  0  0  0  0  0  0  0  0  0  0
    3.0786    0.9528    0.0000 C   0  0  0  0  0  0  0  0  0  0  0  0
    4.5303    0.9814    0.0000 C   0  0  0  0  0  0  0  0  0  0  0  0
    2.3641   -0.2846    0.0000 C   0  0  0  0  0  0  0  0  0  0  0  0
    2.3641    0.5403    0.0000 C   0  0  0  0  0  0  0  0  0  0  0  0
    5.2777    0.5574    0.0000 C   0  0  0  0  0  0  0  0  0  0  0  0
    5.2777   -0.3018    0.0000 C   0  0  0  0  0  0  0  0  0  0  0  0
  1 10  1  0  0  0  0
  2  8  1  0  0  0  0
  3  7  1  0  0  0  0
  4  6  1  0  0  0  0
  4 13  2  0  0  0  0
  5  6  2  0  0  0  0
  5  8  1  0  0  0  0
  5  9  1  0  0  0  0
  6  7  1  0  0  0  0
  7 10  2  0  0  0  0
  8 11  2  0  0  0  0
  9 12  2  0  0  0  0
 10 11  1  0  0  0  0
 12 13  1  0  0  0  0
M  END
> <DATABASE_ID>
DB04815

> <DATABASE_NAME>
drugbank

> <SMILES>
OC1=C(I)C=C(Cl)C2=C1N=CC=C2

> <INCHI_IDENTIFIER>
InChI=1S/C9H5ClINO/c10-6-4-7(11)9(13)8-5(6)2-1-3-12-8/h1-4,13H

> <INCHI_KEY>
QCDFBFJGMNKBDO-UHFFFAOYSA-N

> <FORMULA>
C9H5ClINO

> <MOLECULAR_WEIGHT>
305.5

> <EXACT_MASS>
304.910434914

> <JCHEM_ACCEPTOR_COUNT>
2

> <JCHEM_AVERAGE_POLARIZABILITY>
22.626794432959755

> <JCHEM_BIOAVAILABILITY>
1

> <JCHEM_DONOR_COUNT>
1

> <JCHEM_FORMAL_CHARGE>
0

> <JCHEM_GHOSE_FILTER>
0

> <JCHEM_IUPAC>
5-chloro-7-iodoquinolin-8-ol

> <ALOGPS_LOGP>
3.66

> <JCHEM_LOGP>
3.360324304333333

> <ALOGPS_LOGS>
-3.06

> <JCHEM_MDDR_LIKE_RULE>
0

> <JCHEM_NUMBER_OF_RINGS>
2

> <JCHEM_PHYSIOLOGICAL_CHARGE>
0

> <JCHEM_PKA_STRONGEST_ACIDIC>
7.337799516151212

> <JCHEM_PKA_STRONGEST_BASIC>
3.2821550903484003

> <JCHEM_POLAR_SURFACE_AREA>
33.120000000000005

> <JCHEM_REFRACTIVITY>
60.127500000000005

> <JCHEM_ROTATABLE_BOND_COUNT>
0

> <JCHEM_RULE_OF_FIVE>
1

> <ALOGPS_SOLUBILITY>
2.64e-01 g/l

> <JCHEM_TRADITIONAL_IUPAC>
clioquinol

> <JCHEM_VEBER_RULE>
1

> <DRUGBANK_ID>
DB04815

> <DRUG_GROUPS>
approved; vet_approved; withdrawn

> <GENERIC_NAME>
Clioquinol

> <SYNONYMS>
5-Chlor-7-jod-8-hydroxy-chinolin; 5-Chloro-7-iodo-8-hydroxyquinoline; 5-Chloro-7-iodo-8-quinolinol; 5-chloro-7-iodoquinolin-8-ol; 5-Chloro-8-hydroxy-7-iodoquinoline; 7-Iodo-5-chloro-8-hydroxyquinoline; 7-Iodo-5-chloroxine; Chloroiodoquin; Clioquinol; Clioquinolum; Iodochlorhydroxyquin; Iodochlorhydroxyquinoline; Iodochlorohydroxyquin; Iodochloroxyquinoline

> <PRODUCTS>
Ala Quin; Aristoform R Crm 0.1%; Dermasorb AF Complete Kit; Dermoscribe Diaper; Dermoscribe Ichybum; Locacorten Vioform; Locacorten Vioform Eardrops; Neo Vagex; PMS-flumethasone-clioquinol; Phen-oris - Ont Top; Phenoris Ont; T.R.U.E. Test Thin-Layer Rapid Use Patch Test; Vioform + Hydrocortisone; Vioform 3%; Vioform Hydrocortisone; Vioform Hydrocortisone Mild

$$$$
4816
  Mrv0541 02231217562D          

 18 20  0  0  0  0            999 V2000
    3.6957    1.4452    0.0000 O   0  0  0  0  0  0  0  0  0  0  0  0
    3.6957   -1.7230    0.0000 O   0  0  0  0  0  0  0  0  0  0  0  0
    5.0805    1.4726    0.0000 O   0  0  0  0  0  0  0  0  0  0  0  0
    2.3109    1.4726    0.0000 O   0  0  0  0  0  0  0  0  0  0  0  0
    4.3817    0.2571    0.0000 C   0  0  0  0  0  0  0  0  0  0  0  0
    3.0098    0.2571    0.0000 C   0  0  0  0  0  0  0  0  0  0  0  0
    4.3817   -0.5350    0.0000 C   0  0  0  0  0  0  0  0  0  0  0  0
    3.0098   -0.5350    0.0000 C   0  0  0  0  0  0  0  0  0  0  0  0
    3.6957    0.6531    0.0000 C   0  0  0  0  0  0  0  0  0  0  0  0
    3.6957   -0.9310    0.0000 C   0  0  0  0  0  0  0  0  0  0  0  0
    5.0897    0.6806    0.0000 C   0  0  0  0  0  0  0  0  0  0  0  0
    2.3018    0.6806    0.0000 C   0  0  0  0  0  0  0  0  0  0  0  0
    5.0897   -0.9585    0.0000 C   0  0  0  0  0  0  0  0  0  0  0  0
    2.3018   -0.9585    0.0000 C   0  0  0  0  0  0  0  0  0  0  0  0
    5.8074    0.2736    0.0000 C   0  0  0  0  0  0  0  0  0  0  0  0
    1.5841    0.2736    0.0000 C   0  0  0  0  0  0  0  0  0  0  0  0
    5.8074   -0.5514    0.0000 C   0  0  0  0  0  0  0  0  0  0  0  0
    1.5841   -0.5514    0.0000 C   0  0  0  0  0  0  0  0  0  0  0  0
  1  9  2  0  0  0  0
  2 10  2  0  0  0  0
  3 11  1  0  0  0  0
  4 12  1  0  0  0  0
  5  7  2  0  0  0  0
  5  9  1  0  0  0  0
  5 11  1  0  0  0  0
  6  8  2  0  0  0  0
  6  9  1  0  0  0  0
  6 12  1  0  0  0  0
  7 10  1  0  0  0  0
  7 13  1  0  0  0  0
  8 10  1  0  0  0  0
  8 14  1  0  0  0  0
 11 15  2  0  0  0  0
 12 16  2  0  0  0  0
 13 17  2  0  0  0  0
 14 18  2  0  0  0  0
 15 17  1  0  0  0  0
 16 18  1  0  0  0  0
M  END
> <DATABASE_ID>
DB04816

> <DATABASE_NAME>
drugbank

> <SMILES>
OC1=CC=CC2=C1C(=O)C1=C(C=CC=C1O)C2=O

> <INCHI_IDENTIFIER>
InChI=1S/C14H8O4/c15-9-5-1-3-7-11(9)14(18)12-8(13(7)17)4-2-6-10(12)16/h1-6,15-16H

> <INCHI_KEY>
QBPFLULOKWLNNW-UHFFFAOYSA-N

> <FORMULA>
C14H8O4

> <MOLECULAR_WEIGHT>
240.2109

> <EXACT_MASS>
240.042258744

> <JCHEM_ACCEPTOR_COUNT>
4

> <JCHEM_AVERAGE_POLARIZABILITY>
23.192673494429876

> <JCHEM_BIOAVAILABILITY>
1

> <JCHEM_DONOR_COUNT>
2

> <JCHEM_FORMAL_CHARGE>
0

> <JCHEM_GHOSE_FILTER>
1

> <JCHEM_IUPAC>
1,8-dihydroxy-9,10-dihydroanthracene-9,10-dione

> <ALOGPS_LOGP>
2.98

> <JCHEM_LOGP>
3.6115754313333324

> <ALOGPS_LOGS>
-2.90

> <JCHEM_MDDR_LIKE_RULE>
0

> <JCHEM_NUMBER_OF_RINGS>
3

> <JCHEM_PHYSIOLOGICAL_CHARGE>
0

> <JCHEM_PKA>
9.738104134126353

> <JCHEM_PKA_STRONGEST_ACIDIC>
9.090131898008284

> <JCHEM_PKA_STRONGEST_BASIC>
-4.4468010869425205

> <JCHEM_POLAR_SURFACE_AREA>
74.60000000000001

> <JCHEM_REFRACTIVITY>
65.11280000000002

> <JCHEM_ROTATABLE_BOND_COUNT>
0

> <JCHEM_RULE_OF_FIVE>
1

> <ALOGPS_SOLUBILITY>
3.05e-01 g/l

> <JCHEM_TRADITIONAL_IUPAC>
altan

> <JCHEM_VEBER_RULE>
0

> <DRUGBANK_ID>
DB04816

> <DRUG_GROUPS>
approved; investigational; withdrawn

> <GENERIC_NAME>
Dantron

> <SYNONYMS>
1,8-dihydroxy-9,10-anthracenedione; 1,8-dihydroxy-9,10-anthraquinone; 1,8-dihydroxyanthra-9,10-quinone; 1,8-Dihydroxyanthrachinon; 1,8-Dihydroxyanthraquinone; Chrysazin; Danthron; Dantron; Dantrona; Dantrone; Dantronum

> <PRODUCTS>
Doss Tab; Regulex D Cap

> <INTERNATIONAL_BRANDS>
Altan; Antrapurol; Bancon; Duolax; Prugol; Roydan; Scatron D; Zwitsalax

$$$$

  Mrv1718009041812422D          

 21 22  0  0  0  0            999 V2000
   -0.1767    0.7455    0.0000 C   0  0  0  0  0  0  0  0  0  0  0  0
   -1.2567   -0.0390    0.0000 N   0  0  0  0  0  0  0  0  0  0  0  0
   -2.0537   -0.2527    0.0000 C   0  0  0  0  0  0  0  0  0  0  0  0
   -1.0018    0.7455    0.0000 C   0  0  0  0  0  0  0  0  0  0  0  0
   -1.4143    1.4599    0.0000 C   0  0  0  0  0  0  0  0  0  0  0  0
   -0.5891   -0.5240    0.0000 N   0  0  0  0  0  0  0  0  0  0  0  0
   -0.5891   -1.3490    0.0000 C   0  0  0  0  0  0  0  0  0  0  0  0
   -0.5891   -2.9991    0.0000 C   0  0  0  0  0  0  0  0  0  0  0  0
    0.1252   -2.5866    0.0000 C   0  0  0  0  0  0  0  0  0  0  0  0
    0.1252   -1.7616    0.0000 C   0  0  0  0  0  0  0  0  0  0  0  0
   -1.3037   -1.7616    0.0000 C   0  0  0  0  0  0  0  0  0  0  0  0
   -1.3037   -2.5866    0.0000 C   0  0  0  0  0  0  0  0  0  0  0  0
    0.0782   -0.0390    0.0000 C   0  0  0  0  0  0  0  0  0  0  0  0
    0.8751   -0.2527    0.0000 O   0  0  0  0  0  0  0  0  0  0  0  0
    0.2359    1.4599    0.0000 N   0  0  0  0  0  0  0  0  0  0  0  0
    1.0610    1.4599    0.0000 C   0  0  0  0  0  0  0  0  0  0  0  0
   -0.1767    2.1745    0.0000 C   0  0  0  0  0  0  0  0  0  0  0  0
    1.4734    2.1745    0.0000 S   0  0  0  0  0  0  0  0  0  0  0  0
    2.0537    2.1592    0.0000 O   0  0  0  0  0  0  0  0  0  0  0  0
    0.7469    2.5655    0.0000 O   0  0  0  0  0  0  0  0  0  0  0  0
    1.4490    2.9991    0.0000 O   0  0  0  0  0  0  0  0  0  0  0  0
  6 13  1  0  0  0  0
  6  2  1  0  0  0  0
 13  1  1  0  0  0  0
  1  4  2  0  0  0  0
  4  2  1  0  0  0  0
  2  3  1  0  0  0  0
  4  5  1  0  0  0  0
  6  7  1  0  0  0  0
 10  7  2  0  0  0  0
  7 11  1  0  0  0  0
  8  9  2  0  0  0  0
  8 12  1  0  0  0  0
  9 10  1  0  0  0  0
 11 12  2  0  0  0  0
 13 14  2  0  0  0  0
  1 15  1  0  0  0  0
 15 16  1  0  0  0  0
 15 17  1  0  0  0  0
 16 18  1  0  0  0  0
 18 19  1  0  0  0  0
 20 18  2  0  0  0  0
 21 18  2  0  0  0  0
M  END
> <DATABASE_ID>
DB04817

> <DATABASE_NAME>
drugbank

> <SMILES>
CN(CS(O)(=O)=O)C1=C(C)N(C)N(C1=O)C1=CC=CC=C1

> <INCHI_IDENTIFIER>
InChI=1S/C13H17N3O4S/c1-10-12(14(2)9-21(18,19)20)13(17)16(15(10)3)11-7-5-4-6-8-11/h4-8H,9H2,1-3H3,(H,18,19,20)

> <INCHI_KEY>
LVWZTYCIRDMTEY-UHFFFAOYSA-N

> <FORMULA>
C13H17N3O4S

> <MOLECULAR_WEIGHT>
311.36

> <EXACT_MASS>
311.093977213

> <JCHEM_ACCEPTOR_COUNT>
6

> <JCHEM_ATOM_COUNT>
38

> <JCHEM_AVERAGE_POLARIZABILITY>
31.408910265642206

> <JCHEM_BIOAVAILABILITY>
1

> <JCHEM_DONOR_COUNT>
1

> <JCHEM_FORMAL_CHARGE>
0

> <JCHEM_GHOSE_FILTER>
0

> <JCHEM_IUPAC>
[(1,5-dimethyl-3-oxo-2-phenyl-2,3-dihydro-1H-pyrazol-4-yl)(methyl)amino]methanesulfonic acid

> <ALOGPS_LOGP>
-0.40

> <JCHEM_LOGP>
-0.8189573360234469

> <ALOGPS_LOGS>
-2.09

> <JCHEM_MDDR_LIKE_RULE>
0

> <JCHEM_NUMBER_OF_RINGS>
2

> <JCHEM_PHYSIOLOGICAL_CHARGE>
-1

> <JCHEM_PKA>
19.312089573407697

> <JCHEM_PKA_STRONGEST_ACIDIC>
-1.4194135812767827

> <JCHEM_PKA_STRONGEST_BASIC>
-0.5361955480110309

> <JCHEM_POLAR_SURFACE_AREA>
81.16

> <JCHEM_REFRACTIVITY>
80.04120000000002

> <JCHEM_ROTATABLE_BOND_COUNT>
4

> <JCHEM_RULE_OF_FIVE>
1

> <ALOGPS_SOLUBILITY>
2.53e+00 g/l

> <JCHEM_TRADITIONAL_IUPAC>
metamizole

> <JCHEM_VEBER_RULE>
0

> <DRUGBANK_ID>
DB04817

> <DRUG_GROUPS>
approved; investigational; withdrawn

> <GENERIC_NAME>
Metamizole

> <SYNONYMS>
metamizol

> <INTERNATIONAL_BRANDS>
Algocalmin; Algozone; Analgin; Dimethone; Dipirona; Neo-Melubrina; Novalgin; Optalgin; Protemp; Pyralgin

> <SALTS>
Metamizole magnesium; Metamizole sodium; Metamizole sodium monohydrate

$$$$

  Mrv1909 10131916402D          

 13 13  0  0  0  0            999 V2000
   -1.1083    0.0000    0.0000 C   0  0  0  0  0  0  0  0  0  0  0  0
   -0.3554   -0.4183    0.0000 C   0  0  0  0  0  0  0  0  0  0  0  0
   -1.8194   -0.4183    0.0000 C   0  0  0  0  0  0  0  0  0  0  0  0
   -1.1083    0.8365    0.0000 C   0  0  0  0  0  0  0  0  0  0  0  0
    0.3555    0.0000    0.0000 N   0  0  0  0  0  0  0  0  0  0  0  0
   -0.3554   -1.2547    0.0000 O   0  0  0  0  0  0  0  0  0  0  0  0
   -2.5304    0.0000    0.0000 C   0  0  0  0  0  0  0  0  0  0  0  0
   -1.8194    1.2547    0.0000 C   0  0  0  0  0  0  0  0  0  0  0  0
    1.0666   -0.4183    0.0000 N   0  0  0  0  0  0  0  0  0  0  0  0
   -2.5304    0.8365    0.0000 N   0  0  0  0  0  0  0  0  0  0  0  0
    1.8195    0.0000    0.0000 C   0  0  0  0  0  0  0  0  0  0  0  0
    2.5304   -0.4183    0.0000 C   0  0  0  0  0  0  0  0  0  0  0  0
    1.8195    0.8365    0.0000 C   0  0  0  0  0  0  0  0  0  0  0  0
  1  4  1  0  0  0  0
  2  5  1  0  0  0  0
  2  6  2  0  0  0  0
  3  7  1  0  0  0  0
  4  8  2  0  0  0  0
  5  9  1  0  0  0  0
  7 10  2  0  0  0  0
  8 10  1  0  0  0  0
  9 11  1  0  0  0  0
  1  2  1  0  0  0  0
 11 12  1  0  0  0  0
  1  3  2  0  0  0  0
 11 13  1  0  0  0  0
M  END
> <DATABASE_ID>
DB04818

> <DATABASE_NAME>
drugbank

> <SMILES>
CC(C)NNC(=O)C1=CC=NC=C1

> <INCHI_IDENTIFIER>
InChI=1S/C9H13N3O/c1-7(2)11-12-9(13)8-3-5-10-6-4-8/h3-7,11H,1-2H3,(H,12,13)

> <INCHI_KEY>
NYMGNSNKLVNMIA-UHFFFAOYSA-N

> <FORMULA>
C9H13N3O

> <MOLECULAR_WEIGHT>
179.219

> <EXACT_MASS>
179.105862053

> <JCHEM_ACCEPTOR_COUNT>
3

> <JCHEM_ATOM_COUNT>
26

> <JCHEM_AVERAGE_POLARIZABILITY>
19.194048913077708

> <JCHEM_BIOAVAILABILITY>
1

> <JCHEM_DONOR_COUNT>
2

> <JCHEM_FORMAL_CHARGE>
0

> <JCHEM_GHOSE_FILTER>
1

> <JCHEM_IUPAC>
N'-(propan-2-yl)pyridine-4-carbohydrazide

> <ALOGPS_LOGP>
0.02

> <JCHEM_LOGP>
0.3067970353333334

> <ALOGPS_LOGS>
-2.43

> <JCHEM_MDDR_LIKE_RULE>
0

> <JCHEM_NUMBER_OF_RINGS>
1

> <JCHEM_PHYSIOLOGICAL_CHARGE>
0

> <JCHEM_PKA_STRONGEST_ACIDIC>
13.657229678949943

> <JCHEM_PKA_STRONGEST_BASIC>
3.8240753556173495

> <JCHEM_POLAR_SURFACE_AREA>
54.02

> <JCHEM_REFRACTIVITY>
60.9585

> <JCHEM_ROTATABLE_BOND_COUNT>
3

> <JCHEM_RULE_OF_FIVE>
1

> <ALOGPS_SOLUBILITY>
6.74e-01 g/l

> <JCHEM_TRADITIONAL_IUPAC>
3-methyl-[1,2,4]triazino[3,4-a]phthalazin-4-one

> <JCHEM_VEBER_RULE>
0

> <DRUGBANK_ID>
DB04818

> <DRUG_GROUPS>
withdrawn

> <GENERIC_NAME>
Iproniazid

> <SYNONYMS>
Iproniazid; Iproniazida; Iproniazide; Iproniazidum

> <INTERNATIONAL_BRANDS>
Euphozid; Iprazid; Ipronid; Marsilid; Rivivol

> <SALTS>
Iproniazid phosphate

$$$$

  Mrv1718009041812512D          

 18 19  0  0  0  0            999 V2000
    0.0281   -0.2978    0.0000 N   0  0  0  0  0  0  0  0  0  0  0  0
    0.8527   -0.2554    0.0000 C   0  0  0  0  0  0  0  0  0  0  0  0
   -1.1558   -1.0801    0.0000 C   0  0  0  0  0  0  0  0  0  0  0  0
   -1.6738   -0.4352    0.0000 S   0  0  0  0  0  0  0  0  0  0  0  0
   -0.3348   -1.0343    0.0000 C   0  0  0  0  0  0  0  0  0  0  0  0
    1.3074   -0.9426    0.0000 N   0  0  0  0  0  0  0  0  0  0  0  0
   -2.4456   -0.7276    0.0000 C   0  0  0  0  0  0  0  0  0  0  0  0
   -1.6104   -1.7673    0.0000 C   0  0  0  0  0  0  0  0  0  0  0  0
   -0.4052    0.3893    0.0000 C   0  0  0  0  0  0  0  0  0  0  0  0
   -2.4068   -1.5522    0.0000 C   0  0  0  0  0  0  0  0  0  0  0  0
   -1.6738    1.0448    0.0000 N   0  0  0  0  0  0  0  0  0  0  0  0
   -1.2298    0.3506    0.0000 C   0  0  0  0  0  0  0  0  0  0  0  0
    1.2298    0.4739    0.0000 C   0  0  0  0  0  0  0  0  0  0  0  0
    2.1320   -0.9109    0.0000 C   0  0  0  0  0  0  0  0  0  0  0  0
   -2.5020    1.0025    0.0000 C   0  0  0  0  0  0  0  0  0  0  0  0
   -1.3038    1.7673    0.0000 C   0  0  0  0  0  0  0  0  0  0  0  0
    2.0544    0.5197    0.0000 C   0  0  0  0  0  0  0  0  0  0  0  0
    2.5020   -0.1708    0.0000 C   0  0  0  0  0  0  0  0  0  0  0  0
  2  1  1  0  0  0  0
  3  5  1  0  0  0  0
  4  3  1  0  0  0  0
  5  1  1  0  0  0  0
  6  2  2  0  0  0  0
  7  4  1  0  0  0  0
  8  3  2  0  0  0  0
  9  1  1  0  0  0  0
 10  8  1  0  0  0  0
 11 12  1  0  0  0  0
 12  9  1  0  0  0  0
 13  2  1  0  0  0  0
 14  6  1  0  0  0  0
 15 11  1  0  0  0  0
 16 11  1  0  0  0  0
 17 13  2  0  0  0  0
 18 14  2  0  0  0  0
 10  7  2  0  0  0  0
 17 18  1  0  0  0  0
M  END
> <DATABASE_ID>
DB04819

> <DATABASE_NAME>
drugbank

> <SMILES>
CN(C)CCN(CC1=CC=CS1)C1=NC=CC=C1

> <INCHI_IDENTIFIER>
InChI=1S/C14H19N3S/c1-16(2)9-10-17(12-13-6-5-11-18-13)14-7-3-4-8-15-14/h3-8,11H,9-10,12H2,1-2H3

> <INCHI_KEY>
HNJJXZKZRAWDPF-UHFFFAOYSA-N

> <FORMULA>
C14H19N3S

> <MOLECULAR_WEIGHT>
261.39

> <EXACT_MASS>
261.129968798

> <JCHEM_ACCEPTOR_COUNT>
3

> <JCHEM_ATOM_COUNT>
37

> <JCHEM_AVERAGE_POLARIZABILITY>
29.53579075862091

> <JCHEM_BIOAVAILABILITY>
1

> <JCHEM_DONOR_COUNT>
0

> <JCHEM_FORMAL_CHARGE>
0

> <JCHEM_GHOSE_FILTER>
1

> <JCHEM_IUPAC>
N-[2-(dimethylamino)ethyl]-N-[(thiophen-2-yl)methyl]pyridin-2-amine

> <ALOGPS_LOGP>
2.71

> <JCHEM_LOGP>
3.114073790333332

> <ALOGPS_LOGS>
-2.96

> <JCHEM_MDDR_LIKE_RULE>
0

> <JCHEM_NUMBER_OF_RINGS>
2

> <JCHEM_PHYSIOLOGICAL_CHARGE>
1

> <JCHEM_PKA_STRONGEST_BASIC>
8.763872009855984

> <JCHEM_POLAR_SURFACE_AREA>
19.370000000000005

> <JCHEM_REFRACTIVITY>
78.16480000000001

> <JCHEM_ROTATABLE_BOND_COUNT>
6

> <JCHEM_RULE_OF_FIVE>
1

> <ALOGPS_SOLUBILITY>
2.87e-01 g/l

> <JCHEM_TRADITIONAL_IUPAC>
rest-on

> <JCHEM_VEBER_RULE>
1

> <DRUGBANK_ID>
DB04819

> <DRUG_GROUPS>
withdrawn

> <GENERIC_NAME>
Methapyrilene

> <SYNONYMS>
2-[[2-(Dimethylamino)ethyl]-2-thenylamino]pyridine; Methypyrilene; N-(α-pyridyl)-N-(α-thenyl)-N',N'-dimethylethylenediamine; N,N-dimethyl-N'-pyrid-2-yl-N'-2-thenylethylenediamine; N,N-dimethyl-N'-pyridin-2-yl-N'-(2-thienylmethyl)ethane-1,2-diamine; Thenylpyramine

> <INTERNATIONAL_BRANDS>
Co-Pyronil; Histadyl; Lullamin

> <SALTS>
Methapyrilene fumarate; Methapyrilene hydrochloride

$$$$
4820
  Mrv0541 02231217562D          

 22 23  0  0  0  0            999 V2000
    5.2223    0.4125    0.0000 O   0  0  0  0  0  0  0  0  0  0  0  0
    1.6500   -1.6500    0.0000 O   0  0  0  0  0  0  0  0  0  0  0  0
    4.5079    1.6500    0.0000 N   0  0  0  0  0  0  0  0  0  0  0  0
    3.0790   -0.8250    0.0000 N   0  0  0  0  0  0  0  0  0  0  0  0
    3.0790   -1.6500    0.0000 N   0  0  0  0  0  0  0  0  0  0  0  0
    2.3644   -4.5375    0.0000 N   0  0  0  0  0  0  0  0  0  0  0  0
    3.7934    0.4125    0.0000 C   0  0  0  0  0  0  0  0  0  0  0  0
    3.7934   -0.4125    0.0000 C   0  0  0  0  0  0  0  0  0  0  0  0
    5.2223    2.0625    0.0000 C   0  0  0  0  0  0  0  0  0  0  0  0
    4.5079    0.8250    0.0000 C   0  0  0  0  0  0  0  0  0  0  0  0
    5.2223    2.8875    0.0000 C   0  0  0  0  0  0  0  0  0  0  0  0
    4.5079    3.3000    0.0000 C   0  0  0  0  0  0  0  0  0  0  0  0
    5.9369    3.3000    0.0000 C   0  0  0  0  0  0  0  0  0  0  0  0
    4.5079    4.1250    0.0000 C   0  0  0  0  0  0  0  0  0  0  0  0
    5.9369    4.1250    0.0000 C   0  0  0  0  0  0  0  0  0  0  0  0
    2.3644   -2.0625    0.0000 C   0  0  0  0  0  0  0  0  0  0  0  0
    5.2223    4.5375    0.0000 C   0  0  0  0  0  0  0  0  0  0  0  0
    2.3644   -2.8875    0.0000 C   0  0  0  0  0  0  0  0  0  0  0  0
    3.0790   -3.3000    0.0000 C   0  0  0  0  0  0  0  0  0  0  0  0
    1.6500   -3.3000    0.0000 C   0  0  0  0  0  0  0  0  0  0  0  0
    3.0790   -4.1250    0.0000 C   0  0  0  0  0  0  0  0  0  0  0  0
    1.6500   -4.1250    0.0000 C   0  0  0  0  0  0  0  0  0  0  0  0
  1 10  2  0  0  0  0
  2 16  2  0  0  0  0
  3  9  1  0  0  0  0
  3 10  1  0  0  0  0
  4  5  1  0  0  0  0
  4  8  1  0  0  0  0
  5 16  1  0  0  0  0
  6 21  2  0  0  0  0
  6 22  1  0  0  0  0
  7  8  1  0  0  0  0
  7 10  1  0  0  0  0
  9 11  1  0  0  0  0
 11 12  2  0  0  0  0
 11 13  1  0  0  0  0
 12 14  1  0  0  0  0
 13 15  2  0  0  0  0
 14 17  2  0  0  0  0
 15 17  1  0  0  0  0
 16 18  1  0  0  0  0
 18 19  2  0  0  0  0
 18 20  1  0  0  0  0
 19 21  1  0  0  0  0
 20 22  2  0  0  0  0
M  END
> <DATABASE_ID>
DB04820

> <DATABASE_NAME>
drugbank

> <SMILES>
O=C(CCNNC(=O)C1=CC=NC=C1)NCC1=CC=CC=C1

> <INCHI_IDENTIFIER>
InChI=1S/C16H18N4O2/c21-15(18-12-13-4-2-1-3-5-13)8-11-19-20-16(22)14-6-9-17-10-7-14/h1-7,9-10,19H,8,11-12H2,(H,18,21)(H,20,22)

> <INCHI_KEY>
NOIIUHRQUVNIDD-UHFFFAOYSA-N

> <FORMULA>
C16H18N4O2

> <MOLECULAR_WEIGHT>
298.3397

> <EXACT_MASS>
298.14297584

> <JCHEM_ACCEPTOR_COUNT>
4

> <JCHEM_AVERAGE_POLARIZABILITY>
32.06613333190208

> <JCHEM_BIOAVAILABILITY>
1

> <JCHEM_DONOR_COUNT>
3

> <JCHEM_FORMAL_CHARGE>
0

> <JCHEM_GHOSE_FILTER>
1

> <JCHEM_IUPAC>
N-benzyl-3-(pyridin-4-ylformohydrazido)propanamide

> <ALOGPS_LOGP>
0.65

> <JCHEM_LOGP>
0.3896166700000003

> <ALOGPS_LOGS>
-3.53

> <JCHEM_MDDR_LIKE_RULE>
0

> <JCHEM_NUMBER_OF_RINGS>
2

> <JCHEM_PHYSIOLOGICAL_CHARGE>
0

> <JCHEM_PKA>
15.169849537582095

> <JCHEM_PKA_STRONGEST_ACIDIC>
13.652996672057789

> <JCHEM_PKA_STRONGEST_BASIC>
3.4076431615680582

> <JCHEM_POLAR_SURFACE_AREA>
83.12

> <JCHEM_REFRACTIVITY>
93.90660000000001

> <JCHEM_ROTATABLE_BOND_COUNT>
7

> <JCHEM_RULE_OF_FIVE>
1

> <ALOGPS_SOLUBILITY>
8.73e-02 g/l

> <JCHEM_TRADITIONAL_IUPAC>
nialamide

> <JCHEM_VEBER_RULE>
0

> <DRUGBANK_ID>
DB04820

> <DRUG_GROUPS>
approved; withdrawn

> <GENERIC_NAME>
Nialamide

> <SYNONYMS>
1-(2-(Benzylcarbamoyl)ethyl)-2-isonicotinoylhydrazine; 2-(2-(Benzylcarbamoyl)ethyl)hydrazide isonicotinic acid; 2-(2-(Benzylcarbamyl)ethyl)hydrazide isonicotinic acid; BEIH; Isonicotinic acid 2-((2-benzylcarbamoyl)ethyl)hydrazide; Isonicotinic acid, 2-(2-(benzylcarbamoyl)ethyl)hydrazide; N-(2-(Benzylcarbamyl)ethylamino)isonicotinamide; N-benzyl-beta-(isonicotinoylhydrazine)propionamide; N-benzyl-beta-(isonicotinylhydrazino)propionamide; N-Isonicotinoyl-N'(beta-N-benzylcarboxamidoethyl)hydrazine; Nialamida; Nialamide; Nialamidum

> <INTERNATIONAL_BRANDS>
Delmoneurina; Niamid; Niamide; Nuredal; Surgex

$$$$
4821
  Mrv0541 02231217562D          

 18 20  0  0  1  0            999 V2000
    2.3645    1.0928    0.0000 N   0  0  0  0  0  0  0  0  0  0  0  0
    4.5214    2.3588    0.0000 N   0  0  0  0  0  0  0  0  0  0  0  0
    3.0790   -0.1447    0.0000 C   0  0  0  0  0  0  0  0  0  0  0  0
    2.3645    0.2678    0.0000 C   0  0  0  0  0  0  0  0  0  0  0  0
    3.7934    0.2678    0.0000 C   0  0  0  0  0  0  0  0  0  0  0  0
    3.0790    1.5053    0.0000 C   0  0  0  0  0  0  0  0  0  0  0  0
    3.7934    1.0928    0.0000 C   0  0  0  0  0  0  0  0  0  0  0  0
    3.0790   -0.9697    0.0000 C   0  0  0  0  0  0  0  0  0  0  0  0
    4.5309    1.5339    0.0000 C   0  0  0  0  0  0  0  0  0  0  0  0
    4.5309   -0.1733    0.0000 C   0  0  0  0  0  0  0  0  0  0  0  0
    1.6500    1.5053    0.0000 C   0  0  0  0  0  0  0  0  0  0  0  0
    5.2784    1.1100    0.0000 C   0  0  0  0  0  0  0  0  0  0  0  0
    3.7934   -1.3822    0.0000 C   0  0  0  0  0  0  0  0  0  0  0  0
    2.3645   -1.3822    0.0000 C   0  0  0  0  0  0  0  0  0  0  0  0
    5.2784    0.2506    0.0000 C   0  0  0  0  0  0  0  0  0  0  0  0
    3.7934   -2.2072    0.0000 C   0  0  0  0  0  0  0  0  0  0  0  0
    2.3645   -2.2072    0.0000 C   0  0  0  0  0  0  0  0  0  0  0  0
    3.0790   -2.6197    0.0000 C   0  0  0  0  0  0  0  0  0  0  0  0
  1  4  1  0  0  0  0
  1  6  1  0  0  0  0
  1 11  1  0  0  0  0
  2  9  1  0  0  0  0
  3  4  1  0  0  0  0
  3  5  1  0  0  0  0
  3  8  1  0  0  0  0
  5  7  2  0  0  0  0
  5 10  1  0  0  0  0
  6  7  1  0  0  0  0
  7  9  1  0  0  0  0
  8 13  2  0  0  0  0
  8 14  1  0  0  0  0
  9 12  2  0  0  0  0
 10 15  2  0  0  0  0
 12 15  1  0  0  0  0
 13 16  1  0  0  0  0
 14 17  2  0  0  0  0
 16 18  2  0  0  0  0
 17 18  1  0  0  0  0
M  END
> <DATABASE_ID>
DB04821

> <DATABASE_NAME>
drugbank

> <SMILES>
CN1CC(C2=CC=CC=C2)C2=C(C1)C(N)=CC=C2

> <INCHI_IDENTIFIER>
InChI=1S/C16H18N2/c1-18-10-14(12-6-3-2-4-7-12)13-8-5-9-16(17)15(13)11-18/h2-9,14H,10-11,17H2,1H3

> <INCHI_KEY>
XXPANQJNYNUNES-UHFFFAOYSA-N

> <FORMULA>
C16H18N2

> <MOLECULAR_WEIGHT>
238.3275

> <EXACT_MASS>
238.146998586

> <JCHEM_ACCEPTOR_COUNT>
2

> <JCHEM_AVERAGE_POLARIZABILITY>
27.55764105023947

> <JCHEM_BIOAVAILABILITY>
1

> <JCHEM_DONOR_COUNT>
1

> <JCHEM_FORMAL_CHARGE>
0

> <JCHEM_GHOSE_FILTER>
1

> <JCHEM_IUPAC>
2-methyl-4-phenyl-1,2,3,4-tetrahydroisoquinolin-8-amine

> <ALOGPS_LOGP>
2.94

> <JCHEM_LOGP>
2.6243819343333334

> <ALOGPS_LOGS>
-2.87

> <JCHEM_MDDR_LIKE_RULE>
0

> <JCHEM_NUMBER_OF_RINGS>
3

> <JCHEM_PHYSIOLOGICAL_CHARGE>
1

> <JCHEM_PKA_STRONGEST_BASIC>
8.884643318171964

> <JCHEM_POLAR_SURFACE_AREA>
29.259999999999998

> <JCHEM_REFRACTIVITY>
77.17730000000002

> <JCHEM_ROTATABLE_BOND_COUNT>
1

> <JCHEM_RULE_OF_FIVE>
1

> <ALOGPS_SOLUBILITY>
3.18e-01 g/l

> <JCHEM_TRADITIONAL_IUPAC>
nomifensine

> <JCHEM_VEBER_RULE>
1

> <DRUGBANK_ID>
DB04821

> <DRUG_GROUPS>
approved; withdrawn

> <GENERIC_NAME>
Nomifensine

> <SYNONYMS>
(+-)-nomifensin; (+-)-nomifensine; 2-Methyl-4-phenyl-1,2,3,4-tetrahydro-isoquinolin-8-ylamine; 8-Amino-2-methyl-4-phenyl-1,2,3,4-tetrahydroisoquinoline; D,L-nomifensine; Nomifensin; Nomifensina; Nomifensine; Nomifensinum

> <INTERNATIONAL_BRANDS>
Linamiphen

> <SALTS>
Nomifensine maleate

$$$$
4822
  Mrv0541 02231217562D          

 24 24  0  0  0  0            999 V2000
    3.6020   -0.6188    0.0000 O   0  0  0  0  0  0  0  0  0  0  0  0
    2.1731   -0.6188    0.0000 O   0  0  0  0  0  0  0  0  0  0  0  0
    4.3166    1.4438    0.0000 O   0  0  0  0  0  0  0  0  0  0  0  0
    5.7455    3.0938    0.0000 N   0  0  0  0  0  0  0  0  0  0  0  0
    2.8876   -1.8563    0.0000 C   0  0  0  0  0  0  0  0  0  0  0  0
    3.7126   -1.8563    0.0000 C   0  0  0  0  0  0  0  0  0  0  0  0
    2.0625   -1.8563    0.0000 C   0  0  0  0  0  0  0  0  0  0  0  0
    2.8876   -2.6813    0.0000 C   0  0  0  0  0  0  0  0  0  0  0  0
    2.8876   -1.0313    0.0000 C   0  0  0  0  0  0  0  0  0  0  0  0
    4.1251   -1.1418    0.0000 C   0  0  0  0  0  0  0  0  0  0  0  0
    1.6500   -1.1418    0.0000 C   0  0  0  0  0  0  0  0  0  0  0  0
    3.6020   -3.0938    0.0000 C   0  0  0  0  0  0  0  0  0  0  0  0
    2.1731   -3.0938    0.0000 C   0  0  0  0  0  0  0  0  0  0  0  0
    3.6020    0.2063    0.0000 C   0  0  0  0  0  0  0  0  0  0  0  0
    3.6020   -3.9188    0.0000 C   0  0  0  0  0  0  0  0  0  0  0  0
    2.1731   -3.9188    0.0000 C   0  0  0  0  0  0  0  0  0  0  0  0
    5.0310    2.6813    0.0000 C   0  0  0  0  0  0  0  0  0  0  0  0
    4.3166    0.6188    0.0000 C   0  0  0  0  0  0  0  0  0  0  0  0
    5.0310    1.8563    0.0000 C   0  0  0  0  0  0  0  0  0  0  0  0
    2.8876   -4.3313    0.0000 C   0  0  0  0  0  0  0  0  0  0  0  0
    5.7455    3.9188    0.0000 C   0  0  0  0  0  0  0  0  0  0  0  0
    6.4600    2.6813    0.0000 C   0  0  0  0  0  0  0  0  0  0  0  0
    6.4600    4.3313    0.0000 C   0  0  0  0  0  0  0  0  0  0  0  0
    7.1745    3.0938    0.0000 C   0  0  0  0  0  0  0  0  0  0  0  0
  1  9  1  0  0  0  0
  1 14  1  0  0  0  0
  2  9  2  0  0  0  0
  3 18  1  0  0  0  0
  3 19  1  0  0  0  0
  4 17  1  0  0  0  0
  4 21  1  0  0  0  0
  4 22  1  0  0  0  0
  5  6  1  0  0  0  0
  5  7  1  0  0  0  0
  5  8  1  0  0  0  0
  5  9  1  0  0  0  0
  6 10  1  0  0  0  0
  7 11  1  0  0  0  0
  8 12  2  0  0  0  0
  8 13  1  0  0  0  0
 12 15  1  0  0  0  0
 13 16  2  0  0  0  0
 14 18  1  0  0  0  0
 15 20  2  0  0  0  0
 16 20  1  0  0  0  0
 17 19  1  0  0  0  0
 21 23  1  0  0  0  0
 22 24  1  0  0  0  0
M  END
> <DATABASE_ID>
DB04822

> <DATABASE_NAME>
drugbank

> <SMILES>
CCN(CC)CCOCCOC(=O)C(CC)(CC)C1=CC=CC=C1

> <INCHI_IDENTIFIER>
InChI=1S/C20H33NO3/c1-5-20(6-2,18-12-10-9-11-13-18)19(22)24-17-16-23-15-14-21(7-3)8-4/h9-13H,5-8,14-17H2,1-4H3

> <INCHI_KEY>
IQADUMSPOQKAAO-UHFFFAOYSA-N

> <FORMULA>
C20H33NO3

> <MOLECULAR_WEIGHT>
335.4809

> <EXACT_MASS>
335.246043927

> <JCHEM_ACCEPTOR_COUNT>
3

> <JCHEM_AVERAGE_POLARIZABILITY>
39.35427249509149

> <JCHEM_BIOAVAILABILITY>
1

> <JCHEM_DONOR_COUNT>
0

> <JCHEM_FORMAL_CHARGE>
0

> <JCHEM_GHOSE_FILTER>
1

> <JCHEM_IUPAC>
2-[2-(diethylamino)ethoxy]ethyl 2-ethyl-2-phenylbutanoate

> <ALOGPS_LOGP>
4.62

> <JCHEM_LOGP>
4.430310994999999

> <ALOGPS_LOGS>
-4.33

> <JCHEM_MDDR_LIKE_RULE>
0

> <JCHEM_NUMBER_OF_RINGS>
1

> <JCHEM_PHYSIOLOGICAL_CHARGE>
1

> <JCHEM_PKA_STRONGEST_BASIC>
9.414820687956592

> <JCHEM_POLAR_SURFACE_AREA>
38.77

> <JCHEM_REFRACTIVITY>
98.97200000000001

> <JCHEM_ROTATABLE_BOND_COUNT>
13

> <JCHEM_RULE_OF_FIVE>
1

> <ALOGPS_SOLUBILITY>
1.58e-02 g/l

> <JCHEM_TRADITIONAL_IUPAC>
oxeladin

> <JCHEM_VEBER_RULE>
0

> <DRUGBANK_ID>
DB04822

> <DRUG_GROUPS>
approved; withdrawn

> <GENERIC_NAME>
Oxeladin

> <SYNONYMS>
2-(2-Diethylaminoethoxy)ethyl 2-ethyl-2-phenylbutyrate; Oxeladin; Oxeladina; Oxeladine; Oxeladinum

> <SALTS>
Oxeladin citrate

$$$$
4823
  Mrv0541 02231217562D          

 24 27  0  0  0  0            999 V2000
    5.1662   -1.2245    0.0000 O   0  0  0  0  0  0  0  0  0  0  0  0
    2.3154    2.3559    0.0000 O   0  0  0  0  0  0  0  0  0  0  0  0
    6.5328    1.3746    0.0000 O   0  0  0  0  0  0  0  0  0  0  0  0
    3.8597   -1.8884    0.0000 N   0  0  0  0  0  0  0  0  0  0  0  0
    3.8597   -0.5606    0.0000 C   0  0  0  0  0  0  0  0  0  0  0  0
    3.0790   -0.8120    0.0000 C   0  0  0  0  0  0  0  0  0  0  0  0
    4.3411   -1.2245    0.0000 C   0  0  0  0  0  0  0  0  0  0  0  0
    3.4736    0.1686    0.0000 C   0  0  0  0  0  0  0  0  0  0  0  0
    4.5279   -0.0768    0.0000 C   0  0  0  0  0  0  0  0  0  0  0  0
    3.0790   -1.6370    0.0000 C   0  0  0  0  0  0  0  0  0  0  0  0
    2.3645   -0.3995    0.0000 C   0  0  0  0  0  0  0  0  0  0  0  0
    2.3645   -2.0495    0.0000 C   0  0  0  0  0  0  0  0  0  0  0  0
    2.6491    0.1987    0.0000 C   0  0  0  0  0  0  0  0  0  0  0  0
    4.4431    0.7438    0.0000 C   0  0  0  0  0  0  0  0  0  0  0  0
    3.9120    0.8674    0.0000 C   0  0  0  0  0  0  0  0  0  0  0  0
    5.2810   -0.4137    0.0000 C   0  0  0  0  0  0  0  0  0  0  0  0
    1.6500   -0.8120    0.0000 C   0  0  0  0  0  0  0  0  0  0  0  0
    1.6500   -1.6370    0.0000 C   0  0  0  0  0  0  0  0  0  0  0  0
    2.2631    0.9279    0.0000 C   0  0  0  0  0  0  0  0  0  0  0  0
    5.1114    1.2276    0.0000 C   0  0  0  0  0  0  0  0  0  0  0  0
    3.5259    1.5966    0.0000 C   0  0  0  0  0  0  0  0  0  0  0  0
    5.9493    0.0701    0.0000 C   0  0  0  0  0  0  0  0  0  0  0  0
    2.7014    1.6268    0.0000 C   0  0  0  0  0  0  0  0  0  0  0  0
    5.8645    0.8908    0.0000 C   0  0  0  0  0  0  0  0  0  0  0  0
  1  7  2  0  0  0  0
  2 23  1  0  0  0  0
  3 24  1  0  0  0  0
  4  7  1  0  0  0  0
  4 10  1  0  0  0  0
  5  6  1  0  0  0  0
  5  7  1  0  0  0  0
  5  8  1  0  0  0  0
  5  9  1  0  0  0  0
  6 10  1  0  0  0  0
  6 11  2  0  0  0  0
  8 13  2  0  0  0  0
  8 15  1  0  0  0  0
  9 14  2  0  0  0  0
  9 16  1  0  0  0  0
 10 12  2  0  0  0  0
 11 17  1  0  0  0  0
 12 18  1  0  0  0  0
 13 19  1  0  0  0  0
 14 20  1  0  0  0  0
 15 21  2  0  0  0  0
 16 22  2  0  0  0  0
 17 18  2  0  0  0  0
 19 23  2  0  0  0  0
 20 24  2  0  0  0  0
 21 23  1  0  0  0  0
 22 24  1  0  0  0  0
M  END
> <DATABASE_ID>
DB04823

> <DATABASE_NAME>
drugbank

> <SMILES>
OC1=CC=C(C=C1)C1(C(=O)NC2=CC=CC=C12)C1=CC=C(O)C=C1

> <INCHI_IDENTIFIER>
InChI=1S/C20H15NO3/c22-15-9-5-13(6-10-15)20(14-7-11-16(23)12-8-14)17-3-1-2-4-18(17)21-19(20)24/h1-12,22-23H,(H,21,24)

> <INCHI_KEY>
SJDACOMXKWHBOW-UHFFFAOYSA-N

> <FORMULA>
C20H15NO3

> <MOLECULAR_WEIGHT>
317.338

> <EXACT_MASS>
317.105193351

> <JCHEM_ACCEPTOR_COUNT>
3

> <JCHEM_AVERAGE_POLARIZABILITY>
33.066311777514386

> <JCHEM_BIOAVAILABILITY>
1

> <JCHEM_DONOR_COUNT>
3

> <JCHEM_FORMAL_CHARGE>
0

> <JCHEM_GHOSE_FILTER>
1

> <JCHEM_IUPAC>
3,3-bis(4-hydroxyphenyl)-2,3-dihydro-1H-indol-2-one

> <ALOGPS_LOGP>
3.78

> <JCHEM_LOGP>
3.831528069333333

> <ALOGPS_LOGS>
-4.40

> <JCHEM_MDDR_LIKE_RULE>
0

> <JCHEM_NUMBER_OF_RINGS>
4

> <JCHEM_PHYSIOLOGICAL_CHARGE>
0

> <JCHEM_PKA>
9.781307872393402

> <JCHEM_PKA_STRONGEST_ACIDIC>
9.17945553540577

> <JCHEM_PKA_STRONGEST_BASIC>
-5.959081981838879

> <JCHEM_POLAR_SURFACE_AREA>
69.56

> <JCHEM_REFRACTIVITY>
93.69030000000004

> <JCHEM_ROTATABLE_BOND_COUNT>
2

> <JCHEM_RULE_OF_FIVE>
1

> <ALOGPS_SOLUBILITY>
1.25e-02 g/l

> <JCHEM_TRADITIONAL_IUPAC>
oxyphenisatin

> <JCHEM_VEBER_RULE>
0

> <DRUGBANK_ID>
DB04823

> <DRUG_GROUPS>
investigational; withdrawn

> <GENERIC_NAME>
Oxyphenisatin

> <SYNONYMS>
1,3-Dihydro-3,3-bis(4-hydroxyphenyl)-2H-indol-2-one; 3,3-Bis(4-hydroxyphenyl)oxindole; 3,3-Bis(p-hydroxyphenyl)-2-indolinone; 3,3-Bis(p-hydroxyphenyl)oxindole; 4,4'-Dihydroxydiphenylisatin; Dihydroxyphenoloxindol; Oxifenisatina; Oxyphenisatine; Oxyphenisatinum

> <INTERNATIONAL_BRANDS>
Hoscolax; Isolax; Neodrast; Normalax; Nourilax

$$$$
4824
  Mrv0541 02231217562D          

 24 27  0  0  0  0            999 V2000
    4.3411   -1.2316    0.0000 O   0  0  0  0  0  0  0  0  0  0  0  0
    4.1159   -2.6797    0.0000 O   0  0  0  0  0  0  0  0  0  0  0  0
    7.1421   -0.2284    0.0000 O   0  0  0  0  0  0  0  0  0  0  0  0
    2.8453    2.5725    0.0000 O   0  0  0  0  0  0  0  0  0  0  0  0
    3.8596   -0.5678    0.0000 C   0  0  0  0  0  0  0  0  0  0  0  0
    3.0790   -0.8191    0.0000 C   0  0  0  0  0  0  0  0  0  0  0  0
    4.6802   -0.4830    0.0000 C   0  0  0  0  0  0  0  0  0  0  0  0
    3.6060    0.2173    0.0000 C   0  0  0  0  0  0  0  0  0  0  0  0
    3.0790   -1.6441    0.0000 C   0  0  0  0  0  0  0  0  0  0  0  0
    3.8596   -1.8955    0.0000 C   0  0  0  0  0  0  0  0  0  0  0  0
    2.3645   -0.4066    0.0000 C   0  0  0  0  0  0  0  0  0  0  0  0
    5.1640   -1.1512    0.0000 C   0  0  0  0  0  0  0  0  0  0  0  0
    4.1591    0.8295    0.0000 C   0  0  0  0  0  0  0  0  0  0  0  0
    5.0171    0.2702    0.0000 C   0  0  0  0  0  0  0  0  0  0  0  0
    2.7993    0.3902    0.0000 C   0  0  0  0  0  0  0  0  0  0  0  0
    2.3645   -2.0566    0.0000 C   0  0  0  0  0  0  0  0  0  0  0  0
    1.6500   -0.8191    0.0000 C   0  0  0  0  0  0  0  0  0  0  0  0
    1.6500   -1.6441    0.0000 C   0  0  0  0  0  0  0  0  0  0  0  0
    5.9846   -1.0664    0.0000 C   0  0  0  0  0  0  0  0  0  0  0  0
    3.9055    1.6145    0.0000 C   0  0  0  0  0  0  0  0  0  0  0  0
    5.8377    0.3550    0.0000 C   0  0  0  0  0  0  0  0  0  0  0  0
    2.5457    1.1753    0.0000 C   0  0  0  0  0  0  0  0  0  0  0  0
    6.3215   -0.3133    0.0000 C   0  0  0  0  0  0  0  0  0  0  0  0
    3.0989    1.7874    0.0000 C   0  0  0  0  0  0  0  0  0  0  0  0
  1  5  1  0  0  0  0
  1 10  1  0  0  0  0
  2 10  2  0  0  0  0
  3 23  1  0  0  0  0
  4 24  1  0  0  0  0
  5  6  1  0  0  0  0
  5  7  1  0  0  0  0
  5  8  1  0  0  0  0
  6  9  1  0  0  0  0
  6 11  2  0  0  0  0
  7 12  2  0  0  0  0
  7 14  1  0  0  0  0
  8 13  2  0  0  0  0
  8 15  1  0  0  0  0
  9 10  1  0  0  0  0
  9 16  2  0  0  0  0
 11 17  1  0  0  0  0
 12 19  1  0  0  0  0
 13 20  1  0  0  0  0
 14 21  2  0  0  0  0
 15 22  2  0  0  0  0
 16 18  1  0  0  0  0
 17 18  2  0  0  0  0
 19 23  2  0  0  0  0
 20 24  2  0  0  0  0
 21 23  1  0  0  0  0
 22 24  1  0  0  0  0
M  END
> <DATABASE_ID>
DB04824

> <DATABASE_NAME>
drugbank

> <SMILES>
OC1=CC=C(C=C1)C1(OC(=O)C2=CC=CC=C12)C1=CC=C(O)C=C1

> <INCHI_IDENTIFIER>
InChI=1S/C20H14O4/c21-15-9-5-13(6-10-15)20(14-7-11-16(22)12-8-14)18-4-2-1-3-17(18)19(23)24-20/h1-12,21-22H

> <INCHI_KEY>
KJFMBFZCATUALV-UHFFFAOYSA-N

> <FORMULA>
C20H14O4

> <MOLECULAR_WEIGHT>
318.3228

> <EXACT_MASS>
318.089208936

> <JCHEM_ACCEPTOR_COUNT>
3

> <JCHEM_AVERAGE_POLARIZABILITY>
32.65116169123185

> <JCHEM_BIOAVAILABILITY>
1

> <JCHEM_DONOR_COUNT>
2

> <JCHEM_FORMAL_CHARGE>
0

> <JCHEM_GHOSE_FILTER>
1

> <JCHEM_IUPAC>
3,3-bis(4-hydroxyphenyl)-1,3-dihydro-2-benzofuran-1-one

> <ALOGPS_LOGP>
4.41

> <JCHEM_LOGP>
4.353301456333334

> <ALOGPS_LOGS>
-4.51

> <JCHEM_MDDR_LIKE_RULE>
0

> <JCHEM_NUMBER_OF_RINGS>
4

> <JCHEM_PHYSIOLOGICAL_CHARGE>
0

> <JCHEM_PKA>
9.759493314012811

> <JCHEM_PKA_STRONGEST_ACIDIC>
9.157433300427105

> <JCHEM_PKA_STRONGEST_BASIC>
-5.959855476912179

> <JCHEM_POLAR_SURFACE_AREA>
66.76

> <JCHEM_REFRACTIVITY>
91.03730000000003

> <JCHEM_ROTATABLE_BOND_COUNT>
2

> <JCHEM_RULE_OF_FIVE>
1

> <ALOGPS_SOLUBILITY>
9.92e-03 g/l

> <JCHEM_TRADITIONAL_IUPAC>
phenolphthalein

> <JCHEM_VEBER_RULE>
0

> <DRUGBANK_ID>
DB04824

> <DRUG_GROUPS>
approved; withdrawn

> <GENERIC_NAME>
Phenolphthalein

> <SYNONYMS>
3,3-Bis(4-hydroxyphenyl)phthalide; Fenolftalein; Fenolftaleina; Phenolphtaleine; Phenolphthalein; Phenolphthaleinum; Phthalimetten; Phthalin; Yellow phenolphthalein

> <PRODUCTS>
Agarol Eml Strawberry; Agarol Vanilla Laxative Liq; Aid-lax Tab; Alophen Tab 60mg; Alsiline; Bicholate Lilas Tab; Bilex Tab; Calcium Docuphen Cap; Carters Little Pills Tab; Correctol Laxative Tab; Doulax Tab; Doxidan Capsules; EX-lax Chocolated Tab 95mg; EX-lax Light Formula Lax W Stool Soften Tab; Espotabs Laxative Tablets 90mg; Feen-A-mint Phenolphthalein Tab 100mg; Herbalax Forte No 70 Tab; Kyrobil Tab; Lax-BO Tab; Laxarol; Laxatif Tab; Laxative Pills - Tablet; Laxative Tab; Laxative Tablets; Laxavite Tab; Laxo-lax Tab; Le 100 B; Mucinum Tab; Neo Prunex Jam; Phillips' Gelcaps; Pilules Spark; Robol Tab; Triolax Tab; Women's Laxative Tablets

> <INTERNATIONAL_BRANDS>
Chocolax; Feen-a-mint gum; Feen-a-mint laxative mints

$$$$
4825
  Mrv0541 02231217562D          

 25 27  0  0  1  0            999 V2000
    3.0791    0.2063    0.0000 N   0  0  0  0  0  0  0  0  0  0  0  0
    4.5080   -1.4438    0.0000 C   0  0  0  0  0  0  0  0  0  0  0  0
    3.7935   -1.0313    0.0000 C   0  0  0  0  0  0  0  0  0  0  0  0
    3.7935   -0.2063    0.0000 C   0  0  0  0  0  0  0  0  0  0  0  0
    3.0791    1.0313    0.0000 C   0  0  0  0  0  0  0  0  0  0  0  0
    5.2224   -1.0313    0.0000 C   0  0  0  0  0  0  0  0  0  0  0  0
    4.5080   -2.2688    0.0000 C   0  0  0  0  0  0  0  0  0  0  0  0
    2.3645    1.4438    0.0000 C   0  0  0  0  0  0  0  0  0  0  0  0
    3.7935    1.4438    0.0000 C   0  0  0  0  0  0  0  0  0  0  0  0
    2.3645    2.2688    0.0000 C   0  0  0  0  0  0  0  0  0  0  0  0
    5.9370   -1.4438    0.0000 C   0  0  0  0  0  0  0  0  0  0  0  0
    5.2224   -2.6813    0.0000 C   0  0  0  0  0  0  0  0  0  0  0  0
    5.2224   -0.2063    0.0000 C   0  0  0  0  0  0  0  0  0  0  0  0
    3.7935   -2.6813    0.0000 C   0  0  0  0  0  0  0  0  0  0  0  0
    1.6500    2.6813    0.0000 C   0  0  0  0  0  0  0  0  0  0  0  0
    3.0791    2.6813    0.0000 C   0  0  0  0  0  0  0  0  0  0  0  0
    6.6515   -1.0313    0.0000 C   0  0  0  0  0  0  0  0  0  0  0  0
    5.2224   -3.5063    0.0000 C   0  0  0  0  0  0  0  0  0  0  0  0
    5.9370    0.2063    0.0000 C   0  0  0  0  0  0  0  0  0  0  0  0
    3.7935   -3.5063    0.0000 C   0  0  0  0  0  0  0  0  0  0  0  0
    6.6515   -0.2063    0.0000 C   0  0  0  0  0  0  0  0  0  0  0  0
    4.5080   -3.9188    0.0000 C   0  0  0  0  0  0  0  0  0  0  0  0
    1.6500    3.5063    0.0000 C   0  0  0  0  0  0  0  0  0  0  0  0
    3.0791    3.5063    0.0000 C   0  0  0  0  0  0  0  0  0  0  0  0
    2.3645    3.9188    0.0000 C   0  0  0  0  0  0  0  0  0  0  0  0
  1  4  1  0  0  0  0
  1  5  1  0  0  0  0
  2  3  1  0  0  0  0
  2  6  1  0  0  0  0
  2  7  1  0  0  0  0
  3  4  1  0  0  0  0
  5  8  1  0  0  0  0
  5  9  1  0  0  0  0
  6 11  2  0  0  0  0
  6 13  1  0  0  0  0
  7 12  2  0  0  0  0
  7 14  1  0  0  0  0
  8 10  1  0  0  0  0
 10 15  2  0  0  0  0
 10 16  1  0  0  0  0
 11 17  1  0  0  0  0
 12 18  1  0  0  0  0
 13 19  2  0  0  0  0
 14 20  2  0  0  0  0
 15 23  1  0  0  0  0
 16 24  2  0  0  0  0
 17 21  2  0  0  0  0
 18 22  2  0  0  0  0
 19 21  1  0  0  0  0
 20 22  1  0  0  0  0
 23 25  2  0  0  0  0
 24 25  1  0  0  0  0
M  END
> <DATABASE_ID>
DB04825

> <DATABASE_NAME>
drugbank

> <SMILES>
CC(CC1=CC=CC=C1)NCCC(C1=CC=CC=C1)C1=CC=CC=C1

> <INCHI_IDENTIFIER>
InChI=1S/C24H27N/c1-20(19-21-11-5-2-6-12-21)25-18-17-24(22-13-7-3-8-14-22)23-15-9-4-10-16-23/h2-16,20,24-25H,17-19H2,1H3

> <INCHI_KEY>
IFFPICMESYHZPQ-UHFFFAOYSA-N

> <FORMULA>
C24H27N

> <MOLECULAR_WEIGHT>
329.4779

> <EXACT_MASS>
329.214349869

> <JCHEM_ACCEPTOR_COUNT>
1

> <JCHEM_AVERAGE_POLARIZABILITY>
39.764886264546746

> <JCHEM_BIOAVAILABILITY>
1

> <JCHEM_DONOR_COUNT>
1

> <JCHEM_FORMAL_CHARGE>
0

> <JCHEM_GHOSE_FILTER>
0

> <JCHEM_IUPAC>
(3,3-diphenylpropyl)(1-phenylpropan-2-yl)amine

> <ALOGPS_LOGP>
5.89

> <JCHEM_LOGP>
6.115356931666668

> <ALOGPS_LOGS>
-6.97

> <JCHEM_MDDR_LIKE_RULE>
1

> <JCHEM_NUMBER_OF_RINGS>
3

> <JCHEM_PHYSIOLOGICAL_CHARGE>
1

> <JCHEM_PKA_STRONGEST_BASIC>
10.48113787755236

> <JCHEM_POLAR_SURFACE_AREA>
12.03

> <JCHEM_REFRACTIVITY>
107.09200000000006

> <JCHEM_ROTATABLE_BOND_COUNT>
8

> <JCHEM_RULE_OF_FIVE>
0

> <ALOGPS_SOLUBILITY>
3.54e-05 g/l

> <JCHEM_TRADITIONAL_IUPAC>
prenylamine

> <JCHEM_VEBER_RULE>
1

> <DRUGBANK_ID>
DB04825

> <DRUG_GROUPS>
approved; withdrawn

> <GENERIC_NAME>
Prenylamine

> <SYNONYMS>
1-Phenyl-2-(1',1'-diphenylpropyl-3'-amino)propane; DL-prenylamine; N-(1-Methyl-2-phenylethyl)-gamma-phenylbenzenepropanamine; N-(3,3-Diphenylpropyl)-alpha-methylphenaethylamin; N-(3,3-Diphenylpropyl)-alpha-methylphenethylamine; Prenilamina; Prenylamine; Prenylaminum

> <INTERNATIONAL_BRANDS>
Bismethin; Corontin; Corpax; Elecor; Falliocor; Hostaginan; Segontin; Synadrin; Valecor

> <SALTS>
Prenylamine lactate

$$$$
4826
  Mrv1652309251707522D          

 20 22  0  0  1  0            999 V2000
    2.9849    2.1190    0.0000 S   0  0  0  0  0  0  0  0  0  0  0  0
    3.0318   -2.0785    0.0000 N   0  0  0  0  0  0  0  0  0  0  0  0
    3.0318    0.3965    0.0000 N   0  0  0  0  0  0  0  0  0  0  0  0
    3.0318   -0.4285    0.0000 C   0  0  0  0  0  0  0  0  0  0  0  0
    2.3175   -0.8410    0.0000 C   0  0  0  0  0  0  0  0  0  0  0  0
    3.7465   -0.8410    0.0000 C   0  0  0  0  0  0  0  0  0  0  0  0
    2.3175   -1.6660    0.0000 C   0  0  0  0  0  0  0  0  0  0  0  0
    3.7465   -1.6660    0.0000 C   0  0  0  0  0  0  0  0  0  0  0  0
    2.3175    0.8090    0.0000 C   0  0  0  0  0  0  0  0  0  0  0  0
    3.7465    0.8090    0.0000 C   0  0  0  0  0  0  0  0  0  0  0  0
    3.0318   -2.9036    0.0000 C   0  0  0  0  0  0  0  0  0  0  0  0
    2.3175    1.6339    0.0000 C   0  0  0  0  0  0  0  0  0  0  0  0
    4.4610    0.3965    0.0000 C   0  0  0  0  0  0  0  0  0  0  0  0
    3.7465    1.6339    0.0000 C   0  0  0  0  0  0  0  0  0  0  0  0
    1.6500    2.1190    0.0000 C   0  0  0  0  0  0  0  0  0  0  0  0
    5.1754    0.8090    0.0000 C   0  0  0  0  0  0  0  0  0  0  0  0
    4.4610    2.0465    0.0000 C   0  0  0  0  0  0  0  0  0  0  0  0
    5.1754    1.6339    0.0000 C   0  0  0  0  0  0  0  0  0  0  0  0
    1.9050    2.9036    0.0000 C   0  0  0  0  0  0  0  0  0  0  0  0
    2.7300    2.9036    0.0000 C   0  0  0  0  0  0  0  0  0  0  0  0
  1 12  1  0  0  0  0
  1 20  1  0  0  0  0
  2  7  1  0  0  0  0
  2  8  1  0  0  0  0
  2 11  1  0  0  0  0
  3  4  1  0  0  0  0
  3  9  1  0  0  0  0
  3 10  1  0  0  0  0
  4  5  1  0  0  0  0
  4  6  1  0  0  0  0
  5  7  1  0  0  0  0
  6  8  1  0  0  0  0
  9 12  1  0  0  0  0
 10 13  2  0  0  0  0
 10 14  1  0  0  0  0
 12 15  2  0  0  0  0
 13 16  1  0  0  0  0
 14 17  2  0  0  0  0
 15 19  1  0  0  0  0
 16 18  2  0  0  0  0
 17 18  1  0  0  0  0
 19 20  2  0  0  0  0
M  END
> <DATABASE_ID>
DB04826

> <DATABASE_NAME>
drugbank

> <SMILES>
CN1CCC(CC1)N(CC1=CC=CS1)C1=CC=CC=C1

> <INCHI_IDENTIFIER>
InChI=1S/C17H22N2S/c1-18-11-9-16(10-12-18)19(14-17-8-5-13-20-17)15-6-3-2-4-7-15/h2-8,13,16H,9-12,14H2,1H3

> <INCHI_KEY>
KLOHYVOVXOUKQI-UHFFFAOYSA-N

> <FORMULA>
C17H22N2S

> <MOLECULAR_WEIGHT>
286.435

> <EXACT_MASS>
286.150369404

> <JCHEM_ACCEPTOR_COUNT>
2

> <JCHEM_ATOM_COUNT>
42

> <JCHEM_AVERAGE_POLARIZABILITY>
32.88829160533906

> <JCHEM_BIOAVAILABILITY>
1

> <JCHEM_DONOR_COUNT>
0

> <JCHEM_FORMAL_CHARGE>
0

> <JCHEM_GHOSE_FILTER>
1

> <JCHEM_IUPAC>
1-methyl-N-phenyl-N-[(thiophen-2-yl)methyl]piperidin-4-amine

> <ALOGPS_LOGP>
4.47

> <JCHEM_LOGP>
3.7454502919999992

> <ALOGPS_LOGS>
-3.51

> <JCHEM_MDDR_LIKE_RULE>
0

> <JCHEM_NUMBER_OF_RINGS>
3

> <JCHEM_PHYSIOLOGICAL_CHARGE>
1

> <JCHEM_PKA_STRONGEST_BASIC>
8.687962205159312

> <JCHEM_POLAR_SURFACE_AREA>
6.48

> <JCHEM_REFRACTIVITY>
87.44020000000003

> <JCHEM_ROTATABLE_BOND_COUNT>
4

> <JCHEM_RULE_OF_FIVE>
1

> <ALOGPS_SOLUBILITY>
8.83e-02 g/l

> <JCHEM_TRADITIONAL_IUPAC>
thenalidine

> <JCHEM_VEBER_RULE>
1

> <DRUGBANK_ID>
DB04826

> <DRUG_GROUPS>
approved; withdrawn

> <GENERIC_NAME>
Thenalidine

> <SYNONYMS>
1-Methyl-4-amino-N-phenyl-N-(2-thenyl)piperidine; 1-Methyl-4-N-2-thenylanilinopiperidine; Tenalidina; Thenalidine; Thenalidinum; Thenophenopiperidine

> <INTERNATIONAL_BRANDS>
Sanbosten

$$$$
4827
  Mrv0541 02231217562D          

  6  5  0  0  0  0            999 V2000
    3.0791    0.3630    0.0000 O   0  0  0  0  0  0  0  0  0  0  0  0
    3.7935   -0.8745    0.0000 O   0  0  0  0  0  0  0  0  0  0  0  0
    4.5080    0.3630    0.0000 N   0  0  0  0  0  0  0  0  0  0  0  0
    2.3645   -0.0495    0.0000 C   0  0  0  0  0  0  0  0  0  0  0  0
    1.6500    0.3630    0.0000 C   0  0  0  0  0  0  0  0  0  0  0  0
    3.7935   -0.0495    0.0000 C   0  0  0  0  0  0  0  0  0  0  0  0
  1  4  1  0  0  0  0
  1  6  1  0  0  0  0
  2  6  2  0  0  0  0
  3  6  1  0  0  0  0
  4  5  1  0  0  0  0
M  END
> <DATABASE_ID>
DB04827

> <DATABASE_NAME>
drugbank

> <SMILES>
CCOC(N)=O

> <INCHI_IDENTIFIER>
InChI=1S/C3H7NO2/c1-2-6-3(4)5/h2H2,1H3,(H2,4,5)

> <INCHI_KEY>
JOYRKODLDBILNP-UHFFFAOYSA-N

> <FORMULA>
C3H7NO2

> <MOLECULAR_WEIGHT>
89.0932

> <EXACT_MASS>
89.047678473

> <JCHEM_ACCEPTOR_COUNT>
1

> <JCHEM_AVERAGE_POLARIZABILITY>
8.644413257751996

> <JCHEM_BIOAVAILABILITY>
1

> <JCHEM_DONOR_COUNT>
1

> <JCHEM_FORMAL_CHARGE>
0

> <JCHEM_GHOSE_FILTER>
0

> <JCHEM_IUPAC>
ethyl carbamate

> <ALOGPS_LOGP>
-0.14

> <JCHEM_LOGP>
-0.054189237333333376

> <ALOGPS_LOGS>
0.62

> <JCHEM_MDDR_LIKE_RULE>
0

> <JCHEM_NUMBER_OF_RINGS>
0

> <JCHEM_PHYSIOLOGICAL_CHARGE>
0

> <JCHEM_PKA_STRONGEST_ACIDIC>
15.473281507740328

> <JCHEM_POLAR_SURFACE_AREA>
52.32

> <JCHEM_REFRACTIVITY>
20.8381

> <JCHEM_ROTATABLE_BOND_COUNT>
2

> <JCHEM_RULE_OF_FIVE>
1

> <ALOGPS_SOLUBILITY>
3.71e+02 g/l

> <JCHEM_TRADITIONAL_IUPAC>
urethane

> <JCHEM_VEBER_RULE>
0

> <DRUGBANK_ID>
DB04827

> <DRUG_GROUPS>
approved; withdrawn

> <GENERIC_NAME>
Urethane

> <SYNONYMS>
Aethylcarbamat; Aethylurethan; Carbamic acid ethyl ester; Carbamidsaeure-aethylester; Ethyl carbamate; Ethylester kyseliny karbaminove; Uretan etylowy; Uretano; Urethan; Urethane; Urethanum

$$$$
4828
  Mrv0541 02231217562D          

 20 21  0  0  0  0            999 V2000
    2.3645   -3.1758    0.0000 Cl  0  0  0  0  0  0  0  0  0  0  0  0
    1.6500    0.5368    0.0000 O   0  0  0  0  0  0  0  0  0  0  0  0
    5.4638    3.1223    0.0000 O   0  0  0  0  0  0  0  0  0  0  0  0
    5.6132    1.7013    0.0000 O   0  0  0  0  0  0  0  0  0  0  0  0
    3.1652    1.3572    0.0000 N   0  0  0  0  0  0  0  0  0  0  0  0
    3.0790    0.5368    0.0000 C   0  0  0  0  0  0  0  0  0  0  0  0
    3.9722    1.5287    0.0000 C   0  0  0  0  0  0  0  0  0  0  0  0
    3.8327    0.2011    0.0000 C   0  0  0  0  0  0  0  0  0  0  0  0
    4.3847    0.8143    0.0000 C   0  0  0  0  0  0  0  0  0  0  0  0
    4.3078    2.2824    0.0000 C   0  0  0  0  0  0  0  0  0  0  0  0
    2.3645    0.1242    0.0000 C   0  0  0  0  0  0  0  0  0  0  0  0
    2.5521    1.9092    0.0000 C   0  0  0  0  0  0  0  0  0  0  0  0
    4.0042   -0.6058    0.0000 C   0  0  0  0  0  0  0  0  0  0  0  0
    2.3645   -0.7008    0.0000 C   0  0  0  0  0  0  0  0  0  0  0  0
    5.1283    2.3687    0.0000 C   0  0  0  0  0  0  0  0  0  0  0  0
    3.0790   -1.1133    0.0000 C   0  0  0  0  0  0  0  0  0  0  0  0
    1.6500   -1.1133    0.0000 C   0  0  0  0  0  0  0  0  0  0  0  0
    3.0790   -1.9383    0.0000 C   0  0  0  0  0  0  0  0  0  0  0  0
    1.6500   -1.9383    0.0000 C   0  0  0  0  0  0  0  0  0  0  0  0
    2.3645   -2.3508    0.0000 C   0  0  0  0  0  0  0  0  0  0  0  0
  1 20  1  0  0  0  0
  2 11  2  0  0  0  0
  3 15  1  0  0  0  0
  4 15  2  0  0  0  0
  5  6  1  0  0  0  0
  5  7  1  0  0  0  0
  5 12  1  0  0  0  0
  6  8  2  0  0  0  0
  6 11  1  0  0  0  0
  7  9  2  0  0  0  0
  7 10  1  0  0  0  0
  8  9  1  0  0  0  0
  8 13  1  0  0  0  0
 10 15  1  0  0  0  0
 11 14  1  0  0  0  0
 14 16  2  0  0  0  0
 14 17  1  0  0  0  0
 16 18  1  0  0  0  0
 17 19  2  0  0  0  0
 18 20  2  0  0  0  0
 19 20  1  0  0  0  0
M  END
> <DATABASE_ID>
DB04828

> <DATABASE_NAME>
drugbank

> <SMILES>
CN1C(CC(O)=O)=CC(C)=C1C(=O)C1=CC=C(Cl)C=C1

> <INCHI_IDENTIFIER>
InChI=1S/C15H14ClNO3/c1-9-7-12(8-13(18)19)17(2)14(9)15(20)10-3-5-11(16)6-4-10/h3-7H,8H2,1-2H3,(H,18,19)

> <INCHI_KEY>
ZXVNMYWKKDOREA-UHFFFAOYSA-N

> <FORMULA>
C15H14ClNO3

> <MOLECULAR_WEIGHT>
291.73

> <EXACT_MASS>
291.066221026

> <JCHEM_ACCEPTOR_COUNT>
3

> <JCHEM_AVERAGE_POLARIZABILITY>
29.68315785383126

> <JCHEM_BIOAVAILABILITY>
1

> <JCHEM_DONOR_COUNT>
1

> <JCHEM_FORMAL_CHARGE>
0

> <JCHEM_GHOSE_FILTER>
1

> <JCHEM_IUPAC>
2-[5-(4-chlorobenzoyl)-1,4-dimethyl-1H-pyrrol-2-yl]acetic acid

> <ALOGPS_LOGP>
3.37

> <JCHEM_LOGP>
3.3313756339999996

> <ALOGPS_LOGS>
-4.05

> <JCHEM_MDDR_LIKE_RULE>
0

> <JCHEM_NUMBER_OF_RINGS>
2

> <JCHEM_PHYSIOLOGICAL_CHARGE>
-1

> <JCHEM_PKA_STRONGEST_ACIDIC>
3.857075578582881

> <JCHEM_PKA_STRONGEST_BASIC>
-7.782739361673682

> <JCHEM_POLAR_SURFACE_AREA>
59.3

> <JCHEM_REFRACTIVITY>
77.19760000000001

> <JCHEM_ROTATABLE_BOND_COUNT>
4

> <JCHEM_RULE_OF_FIVE>
1

> <ALOGPS_SOLUBILITY>
2.60e-02 g/l

> <JCHEM_TRADITIONAL_IUPAC>
zomepirac

> <JCHEM_VEBER_RULE>
0

> <DRUGBANK_ID>
DB04828

> <DRUG_GROUPS>
withdrawn

> <GENERIC_NAME>
Zomepirac

> <SYNONYMS>
5-(4-Chlorobenzoyl)-1,4-dimethyl-1H-pyrrole-2-acetic acid; Zomepiracum

> <SALTS>
Zomepirac sodium; Zomepirac sodium anhydrous

$$$$
4829
  Mrv0541 02231217562D          

 25 28  0  0  1  0            999 V2000
    1.6596    0.6794    0.0000 O   0  0  0  0  0  0  0  0  0  0  0  0
    4.5735    0.6791    0.0000 N   0  0  0  0  0  0  0  0  0  0  0  0
    5.5486   -2.7169    0.0000 N   0  0  0  0  0  0  0  0  0  0  0  0
    2.3692    1.9196    0.0000 N   0  0  0  0  0  0  0  0  0  0  0  0
    4.5603   -0.1801    0.0000 C   0  0  1  0  0  0  0  0  0  0  0  0
    3.8458   -0.5926    0.0000 C   0  0  0  0  0  0  0  0  0  0  0  0
    5.2748   -0.5926    0.0000 C   0  0  0  0  0  0  0  0  0  0  0  0
    3.0885    0.6848    0.0000 C   0  0  1  0  0  0  0  0  0  0  0  0
    3.8327    1.1146    0.0000 C   0  0  0  0  0  0  0  0  0  0  0  0
    5.2748   -1.4176    0.0000 C   0  0  0  0  0  0  0  0  0  0  0  0
    3.8458   -1.4176    0.0000 C   0  0  0  0  0  0  0  0  0  0  0  0
    4.5603   -1.8301    0.0000 C   0  0  0  0  0  0  0  0  0  0  0  0
    3.0951   -0.1745    0.0000 C   0  0  0  0  0  0  0  0  0  0  0  0
    4.5735   -2.6893    0.0000 C   0  0  0  0  0  0  0  0  0  0  0  0
    5.2928    1.0834    0.0000 C   0  0  0  0  0  0  0  0  0  0  0  0
    2.3724    1.0946    0.0000 C   0  0  0  0  0  0  0  0  0  0  0  0
    5.8828   -1.9679    0.0000 C   0  0  0  0  0  0  0  0  0  0  0  0
    3.0951   -1.8358    0.0000 C   0  0  0  0  0  0  0  0  0  0  0  0
    3.8327   -3.1248    0.0000 C   0  0  0  0  0  0  0  0  0  0  0  0
    3.0885   -2.6951    0.0000 C   0  0  0  0  0  0  0  0  0  0  0  0
    3.0821    2.3348    0.0000 C   0  0  0  0  0  0  0  0  0  0  0  0
    1.6532    2.3293    0.0000 C   0  0  0  0  0  0  0  0  0  0  0  0
    3.0789    3.1598    0.0000 C   0  0  0  0  0  0  0  0  0  0  0  0
    1.6500    3.1543    0.0000 C   0  0  0  0  0  0  0  0  0  0  0  0
    5.1344    0.1454    0.0000 H   0  0  0  0  0  0  0  0  0  0  0  0
  1 16  2  0  0  0  0
  2  5  1  0  0  0  0
  2  9  1  0  0  0  0
  2 15  1  0  0  0  0
  3 14  1  0  0  0  0
  3 17  1  0  0  0  0
  4 16  1  0  0  0  0
  4 21  1  0  0  0  0
  4 22  1  0  0  0  0
  5  6  1  0  0  0  0
  5  7  1  0  0  0  0
  5 25  1  1  0  0  0
  6 11  1  0  0  0  0
  6 13  2  0  0  0  0
  7 10  1  0  0  0  0
  8  9  1  0  0  0  0
  8 13  1  0  0  0  0
  8 16  1  1  0  0  0
 10 12  1  0  0  0  0
 10 17  2  0  0  0  0
 11 12  2  0  0  0  0
 11 18  1  0  0  0  0
 12 14  1  0  0  0  0
 14 19  2  0  0  0  0
 18 20  2  0  0  0  0
 19 20  1  0  0  0  0
 21 23  1  0  0  0  0
 22 24  1  0  0  0  0
M  END
> <DATABASE_ID>
DB04829

> <DATABASE_NAME>
drugbank

> <SMILES>
[H][C@@]12CC3=CNC4=CC=CC(=C34)C1=C[C@H](CN2C)C(=O)N(CC)CC

> <INCHI_IDENTIFIER>
InChI=1S/C20H25N3O/c1-4-23(5-2)20(24)14-9-16-15-7-6-8-17-19(15)13(11-21-17)10-18(16)22(3)12-14/h6-9,11,14,18,21H,4-5,10,12H2,1-3H3/t14-,18-/m1/s1

> <INCHI_KEY>
VAYOSLLFUXYJDT-RDTXWAMCSA-N

> <FORMULA>
C20H25N3O

> <MOLECULAR_WEIGHT>
323.432

> <EXACT_MASS>
323.199762437

> <JCHEM_ACCEPTOR_COUNT>
2

> <JCHEM_AVERAGE_POLARIZABILITY>
37.5368063820775

> <JCHEM_BIOAVAILABILITY>
1

> <JCHEM_DONOR_COUNT>
1

> <JCHEM_FORMAL_CHARGE>
0

> <JCHEM_GHOSE_FILTER>
1

> <JCHEM_IUPAC>
(4R,7R)-N,N-diethyl-6-methyl-6,11-diazatetracyclo[7.6.1.0²,⁷.0¹²,¹⁶]hexadeca-1(16),2,9,12,14-pentaene-4-carboxamide

> <ALOGPS_LOGP>
3.30

> <JCHEM_LOGP>
2.2815149479999994

> <ALOGPS_LOGS>
-3.08

> <JCHEM_MDDR_LIKE_RULE>
0

> <JCHEM_NUMBER_OF_RINGS>
4

> <JCHEM_PHYSIOLOGICAL_CHARGE>
1

> <JCHEM_PKA_STRONGEST_ACIDIC>
17.018362935901628

> <JCHEM_PKA_STRONGEST_BASIC>
7.977009732366193

> <JCHEM_POLAR_SURFACE_AREA>
39.34

> <JCHEM_REFRACTIVITY>
98.7347

> <JCHEM_ROTATABLE_BOND_COUNT>
3

> <JCHEM_RULE_OF_FIVE>
1

> <ALOGPS_SOLUBILITY>
2.70e-01 g/l

> <JCHEM_TRADITIONAL_IUPAC>
lysergic acid diethylamide

> <JCHEM_VEBER_RULE>
1

> <DRUGBANK_ID>
DB04829

> <DRUG_GROUPS>
illicit; investigational; withdrawn

> <GENERIC_NAME>
Lysergic acid diethylamide

> <SYNONYMS>
(+)-LSD; D-lysergic acid diethylamide; Diethylamid kyseliny lysergove; LSD; LSD 25; Lysergic acid diethylamide; Lysergide; Lysergidum; Lysergsäurediäthylamid; Lysergsäurediethylamid; N,N-diethyl-(+)-lysergamide; N,N-diethyl-D-lysergamide; N,N-diethyllysergamide

> <INTERNATIONAL_BRANDS>
Delysid

$$$$
4830
  Mrv0541 02231217572D          

 11 10  0  0  0  0            999 V2000
    4.2365    0.3630    0.0000 N   0  0  0  0  0  0  0  0  0  0  0  0
    3.5220    1.6005    0.0000 N   0  0  0  0  0  0  0  0  0  0  0  0
    4.9509    1.6005    0.0000 N   0  0  0  0  0  0  0  0  0  0  0  0
    2.0930    1.6005    0.0000 N   0  0  0  0  0  0  0  0  0  0  0  0
    2.8075    0.3630    0.0000 N   0  0  0  0  0  0  0  0  0  0  0  0
    4.9509   -0.8745    0.0000 C   0  0  0  0  0  0  0  0  0  0  0  0
    5.6655   -1.2870    0.0000 C   0  0  0  0  0  0  0  0  0  0  0  0
    4.9509   -0.0495    0.0000 C   0  0  0  0  0  0  0  0  0  0  0  0
    5.6655   -2.1120    0.0000 C   0  0  0  0  0  0  0  0  0  0  0  0
    4.2365    1.1880    0.0000 C   0  0  0  0  0  0  0  0  0  0  0  0
    2.8075    1.1880    0.0000 C   0  0  0  0  0  0  0  0  0  0  0  0
  1  8  1  0  0  0  0
  1 10  2  0  0  0  0
  2 10  1  0  0  0  0
  2 11  2  0  0  0  0
  3 10  1  0  0  0  0
  4 11  1  0  0  0  0
  5 11  1  0  0  0  0
  6  7  1  0  0  0  0
  6  8  1  0  0  0  0
  7  9  1  0  0  0  0
M  END
> <DATABASE_ID>
DB04830

> <DATABASE_NAME>
drugbank

> <SMILES>
CCCC\N=C(/N)N=C(N)N

> <INCHI_IDENTIFIER>
InChI=1S/C6H15N5/c1-2-3-4-10-6(9)11-5(7)8/h2-4H2,1H3,(H6,7,8,9,10,11)

> <INCHI_KEY>
XSEUMFJMFFMCIU-UHFFFAOYSA-N

> <FORMULA>
C6H15N5

> <MOLECULAR_WEIGHT>
157.2168

> <EXACT_MASS>
157.132745505

> <JCHEM_ACCEPTOR_COUNT>
5

> <JCHEM_AVERAGE_POLARIZABILITY>
17.66519312569613

> <JCHEM_BIOAVAILABILITY>
1

> <JCHEM_DONOR_COUNT>
3

> <JCHEM_FORMAL_CHARGE>
0

> <JCHEM_GHOSE_FILTER>
0

> <JCHEM_IUPAC>
(E)-2-butyl-1-(diaminomethylidene)guanidine

> <ALOGPS_LOGP>
-0.46

> <JCHEM_LOGP>
-0.35017630533333305

> <ALOGPS_LOGS>
-2.05

> <JCHEM_MDDR_LIKE_RULE>
0

> <JCHEM_NUMBER_OF_RINGS>
0

> <JCHEM_PHYSIOLOGICAL_CHARGE>
2

> <JCHEM_PKA_STRONGEST_BASIC>
11.520336235711333

> <JCHEM_POLAR_SURFACE_AREA>
102.77999999999999

> <JCHEM_REFRACTIVITY>
44.635999999999996

> <JCHEM_ROTATABLE_BOND_COUNT>
3

> <JCHEM_RULE_OF_FIVE>
1

> <ALOGPS_SOLUBILITY>
1.41e+00 g/l

> <JCHEM_TRADITIONAL_IUPAC>
buformin

> <JCHEM_VEBER_RULE>
0

> <DRUGBANK_ID>
DB04830

> <DRUG_GROUPS>
investigational; withdrawn

> <GENERIC_NAME>
Buformin

> <SYNONYMS>
1-Butylbiguanide; Buformina; Buformine; Buforminum

> <INTERNATIONAL_BRANDS>
Adebit; Biforon; Bigunal; Diabrin; Silubin; Ziavetine

> <SALTS>
Buformin hydrochloride

$$$$
4831
  Mrv0541 02231217572D          

 20 21  0  0  0  0            999 V2000
    1.6500    1.2035    0.0000 Cl  0  0  0  0  0  0  0  0  0  0  0  0
    1.6500   -0.4465    0.0000 Cl  0  0  0  0  0  0  0  0  0  0  0  0
    3.8797    3.2615    0.0000 S   0  0  0  0  0  0  0  0  0  0  0  0
    3.0790   -1.2715    0.0000 O   0  0  0  0  0  0  0  0  0  0  0  0
    2.3645    2.4410    0.0000 O   0  0  0  0  0  0  0  0  0  0  0  0
    4.5080   -2.9215    0.0000 O   0  0  0  0  0  0  0  0  0  0  0  0
    3.0790   -2.9215    0.0000 O   0  0  0  0  0  0  0  0  0  0  0  0
    3.0790    1.2035    0.0000 C   0  0  0  0  0  0  0  0  0  0  0  0
    3.0790   -0.4465    0.0000 C   0  0  0  0  0  0  0  0  0  0  0  0
    2.3645    0.7910    0.0000 C   0  0  0  0  0  0  0  0  0  0  0  0
    3.7935    0.7910    0.0000 C   0  0  0  0  0  0  0  0  0  0  0  0
    3.0790    2.0285    0.0000 C   0  0  0  0  0  0  0  0  0  0  0  0
    2.3645   -0.0340    0.0000 C   0  0  0  0  0  0  0  0  0  0  0  0
    3.7935   -0.0340    0.0000 C   0  0  0  0  0  0  0  0  0  0  0  0
    3.7935    2.4410    0.0000 C   0  0  0  0  0  0  0  0  0  0  0  0
    4.5471    2.1054    0.0000 C   0  0  0  0  0  0  0  0  0  0  0  0
    3.7935   -1.6840    0.0000 C   0  0  0  0  0  0  0  0  0  0  0  0
    5.0992    2.7186    0.0000 C   0  0  0  0  0  0  0  0  0  0  0  0
    4.6867    3.4330    0.0000 C   0  0  0  0  0  0  0  0  0  0  0  0
    3.7935   -2.5090    0.0000 C   0  0  0  0  0  0  0  0  0  0  0  0
  1 10  1  0  0  0  0
  2 13  1  0  0  0  0
  3 15  1  0  0  0  0
  3 19  1  0  0  0  0
  4  9  1  0  0  0  0
  4 17  1  0  0  0  0
  5 12  2  0  0  0  0
  6 20  1  0  0  0  0
  7 20  2  0  0  0  0
  8 10  2  0  0  0  0
  8 11  1  0  0  0  0
  8 12  1  0  0  0  0
  9 13  2  0  0  0  0
  9 14  1  0  0  0  0
 10 13  1  0  0  0  0
 11 14  2  0  0  0  0
 12 15  1  0  0  0  0
 15 16  2  0  0  0  0
 16 18  1  0  0  0  0
 17 20  1  0  0  0  0
 18 19  2  0  0  0  0
M  END
> <DATABASE_ID>
DB04831

> <DATABASE_NAME>
drugbank

> <SMILES>
OC(=O)COC1=C(Cl)C(Cl)=C(C=C1)C(=O)C1=CC=CS1

> <INCHI_IDENTIFIER>
InChI=1S/C13H8Cl2O4S/c14-11-7(13(18)9-2-1-5-20-9)3-4-8(12(11)15)19-6-10(16)17/h1-5H,6H2,(H,16,17)

> <INCHI_KEY>
AGHANLSBXUWXTB-UHFFFAOYSA-N

> <FORMULA>
C13H8Cl2O4S

> <MOLECULAR_WEIGHT>
331.171

> <EXACT_MASS>
329.952034848

> <JCHEM_ACCEPTOR_COUNT>
4

> <JCHEM_AVERAGE_POLARIZABILITY>
30.445744499098673

> <JCHEM_BIOAVAILABILITY>
1

> <JCHEM_DONOR_COUNT>
1

> <JCHEM_FORMAL_CHARGE>
0

> <JCHEM_GHOSE_FILTER>
1

> <JCHEM_IUPAC>
2-[2,3-dichloro-4-(thiophene-2-carbonyl)phenoxy]acetic acid

> <ALOGPS_LOGP>
4.09

> <JCHEM_LOGP>
3.8738816216666665

> <ALOGPS_LOGS>
-5.12

> <JCHEM_MDDR_LIKE_RULE>
0

> <JCHEM_NUMBER_OF_RINGS>
2

> <JCHEM_PHYSIOLOGICAL_CHARGE>
-1

> <JCHEM_PKA_STRONGEST_ACIDIC>
3.2171626547226753

> <JCHEM_PKA_STRONGEST_BASIC>
-4.964762193339346

> <JCHEM_POLAR_SURFACE_AREA>
63.6

> <JCHEM_REFRACTIVITY>
75.6808

> <JCHEM_ROTATABLE_BOND_COUNT>
5

> <JCHEM_RULE_OF_FIVE>
1

> <ALOGPS_SOLUBILITY>
2.54e-03 g/l

> <JCHEM_TRADITIONAL_IUPAC>
ticrynafen

> <JCHEM_VEBER_RULE>
0

> <DRUGBANK_ID>
DB04831

> <DRUG_GROUPS>
withdrawn

> <GENERIC_NAME>
Tienilic acid

> <SYNONYMS>
(2,3-Dichloro-4-(2-thenoyl)phenoxy)acetic acid; (2,3-Dichloro-4-(2-thiophenecarbonyl)phenoxy)acetic acid; 4-(2-Theonyl)-2,3-dichlorphenoxyessigsäure; 4-(2-Thienylketo)-2,3-dichlorophenoxyacetic acid; Acide tiénilique; ácido tienilico; Acidum tienilicum; Thienylic acid; Ticrynafen; Tienilic acid; Tienilico acido

$$$$

  Mrv1902 03111901082D          

 19 20  0  0  0  0            999 V2000
   -0.3906    0.3906    0.0000 C   0  0  0  0  0  0  0  0  0  0  0  0
    0.4343    0.3906    0.0000 C   0  0  0  0  0  0  0  0  0  0  0  0
   -0.8468   -0.3518    0.0000 C   0  0  0  0  0  0  0  0  0  0  0  0
   -0.8274    1.1040    0.0000 C   0  0  0  0  0  0  0  0  0  0  0  0
   -2.0650    1.7932    0.0000 N   0  0  0  0  0  0  0  0  0  0  0  0
    0.8468    1.0798    0.0000 C   0  0  0  0  0  0  0  0  0  0  0  0
   -1.6718   -0.3518    0.0000 C   0  0  0  0  0  0  0  0  0  0  0  0
   -0.4101   -1.0652    0.0000 C   0  0  0  0  0  0  0  0  0  0  0  0
    1.6718    1.0798    0.0000 N   0  0  0  0  0  0  0  0  0  0  0  0
   -1.6718   -1.7787    0.0000 C   0  0  0  0  0  0  0  0  0  0  0  0
   -0.8468   -1.7787    0.0000 C   0  0  0  0  0  0  0  0  0  0  0  0
   -2.0795   -1.0652    0.0000 C   0  0  0  0  0  0  0  0  0  0  0  0
   -2.0795   -2.5163    0.0000 Br  0  0  0  0  0  0  0  0  0  0  0  0
   -1.6476    1.1040    0.0000 C   0  0  0  0  0  0  0  0  0  0  0  0
   -1.6476    2.5017    0.0000 C   0  0  0  0  0  0  0  0  0  0  0  0
   -0.3906    1.7932    0.0000 C   0  0  0  0  0  0  0  0  0  0  0  0
    2.0795    1.7738    0.0000 C   0  0  0  0  0  0  0  0  0  0  0  0
    2.0795    0.3615    0.0000 C   0  0  0  0  0  0  0  0  0  0  0  0
   -0.8274    2.5163    0.0000 C   0  0  0  0  0  0  0  0  0  0  0  0
  2  1  2  0  0  0  0
  3  1  1  0  0  0  0
  4  1  1  0  0  0  0
  5 14  2  0  0  0  0
  6  2  1  0  0  0  0
  7  3  2  0  0  0  0
  8  3  1  0  0  0  0
  9  6  1  0  0  0  0
 10 11  1  0  0  0  0
 11  8  2  0  0  0  0
 12  7  1  0  0  0  0
 13 10  1  0  0  0  0
 14  4  1  0  0  0  0
 15 19  2  0  0  0  0
 16  4  2  0  0  0  0
 17  9  1  0  0  0  0
 18  9  1  0  0  0  0
 19 16  1  0  0  0  0
 12 10  2  0  0  0  0
  5 15  1  0  0  0  0
M  END
> <DATABASE_ID>
DB04832

> <DATABASE_NAME>
drugbank

> <SMILES>
CN(C)C\C=C(\C1=CC=C(Br)C=C1)C1=CC=CN=C1

> <INCHI_IDENTIFIER>
InChI=1S/C16H17BrN2/c1-19(2)11-9-16(14-4-3-10-18-12-14)13-5-7-15(17)8-6-13/h3-10,12H,11H2,1-2H3/b16-9-

> <INCHI_KEY>
OYPPVKRFBIWMSX-SXGWCWSVSA-N

> <FORMULA>
C16H17BrN2

> <MOLECULAR_WEIGHT>
317.23

> <EXACT_MASS>
316.057512

> <JCHEM_ACCEPTOR_COUNT>
2

> <JCHEM_ATOM_COUNT>
36

> <JCHEM_AVERAGE_POLARIZABILITY>
30.935501916614633

> <JCHEM_BIOAVAILABILITY>
1

> <JCHEM_DONOR_COUNT>
0

> <JCHEM_FORMAL_CHARGE>
0

> <JCHEM_GHOSE_FILTER>
1

> <JCHEM_IUPAC>
[(2Z)-3-(4-bromophenyl)-3-(pyridin-3-yl)prop-2-en-1-yl]dimethylamine

> <ALOGPS_LOGP>
3.39

> <JCHEM_LOGP>
3.5088370323333335

> <ALOGPS_LOGS>
-4.12

> <JCHEM_MDDR_LIKE_RULE>
0

> <JCHEM_NUMBER_OF_RINGS>
2

> <JCHEM_PHYSIOLOGICAL_CHARGE>
1

> <JCHEM_PKA_STRONGEST_BASIC>
8.615206433244522

> <JCHEM_POLAR_SURFACE_AREA>
16.130000000000003

> <JCHEM_REFRACTIVITY>
93.93790000000003

> <JCHEM_ROTATABLE_BOND_COUNT>
4

> <JCHEM_RULE_OF_FIVE>
1

> <ALOGPS_SOLUBILITY>
2.39e-02 g/l

> <JCHEM_TRADITIONAL_IUPAC>
zimelidine

> <JCHEM_VEBER_RULE>
1

> <DRUGBANK_ID>
DB04832

> <DRUG_GROUPS>
approved; withdrawn

> <GENERIC_NAME>
Zimelidine

> <SYNONYMS>
(Z)-3-(4'-Bromophenyl)-3-(3''-pyridyl)dimethylallylamine; (Z)-zimelidine; cis-zimelidine; Zimeldina; Zimeldine; Zimeldinum

> <SALTS>
Zimelidine hydrochloride

$$$$
4833
  Mrv0541 02231217572D          

 19 21  0  0  0  0            999 V2000
    4.5079   -1.0455    0.0000 O   0  0  0  0  0  0  0  0  0  0  0  0
    3.7934    0.1920    0.0000 N   0  0  0  0  0  0  0  0  0  0  0  0
    4.5079    1.4295    0.0000 N   0  0  0  0  0  0  0  0  0  0  0  0
    3.0790   -0.2205    0.0000 C   0  0  0  0  0  0  0  0  0  0  0  0
    3.7934    1.0170    0.0000 C   0  0  0  0  0  0  0  0  0  0  0  0
    5.2223    0.1920    0.0000 C   0  0  0  0  0  0  0  0  0  0  0  0
    4.5079   -0.2205    0.0000 C   0  0  0  0  0  0  0  0  0  0  0  0
    2.3645    0.1920    0.0000 C   0  0  0  0  0  0  0  0  0  0  0  0
    5.2223    1.0170    0.0000 C   0  0  0  0  0  0  0  0  0  0  0  0
    3.0790   -1.0455    0.0000 C   0  0  0  0  0  0  0  0  0  0  0  0
    5.9599   -0.2492    0.0000 C   0  0  0  0  0  0  0  0  0  0  0  0
    3.0790    1.4295    0.0000 C   0  0  0  0  0  0  0  0  0  0  0  0
    1.6500   -0.2205    0.0000 C   0  0  0  0  0  0  0  0  0  0  0  0
    5.9599    1.4580    0.0000 C   0  0  0  0  0  0  0  0  0  0  0  0
    2.3645    1.0170    0.0000 C   0  0  0  0  0  0  0  0  0  0  0  0
    2.3645   -1.4580    0.0000 C   0  0  0  0  0  0  0  0  0  0  0  0
    1.6500   -1.0455    0.0000 C   0  0  0  0  0  0  0  0  0  0  0  0
    6.7073    0.1748    0.0000 C   0  0  0  0  0  0  0  0  0  0  0  0
    6.7073    1.0341    0.0000 C   0  0  0  0  0  0  0  0  0  0  0  0
  1  7  2  0  0  0  0
  2  4  1  0  0  0  0
  2  5  1  0  0  0  0
  2  7  1  0  0  0  0
  3  5  2  0  0  0  0
  3  9  1  0  0  0  0
  4  8  1  0  0  0  0
  4 10  2  0  0  0  0
  5 12  1  0  0  0  0
  6  7  1  0  0  0  0
  6  9  1  0  0  0  0
  6 11  2  0  0  0  0
  8 13  2  0  0  0  0
  8 15  1  0  0  0  0
  9 14  2  0  0  0  0
 10 16  1  0  0  0  0
 11 18  1  0  0  0  0
 13 17  1  0  0  0  0
 14 19  1  0  0  0  0
 16 17  2  0  0  0  0
 18 19  2  0  0  0  0
M  END
> <DATABASE_ID>
DB04833

> <DATABASE_NAME>
drugbank

> <SMILES>
CC1=CC=CC=C1N1C(C)=NC2=CC=CC=C2C1=O

> <INCHI_IDENTIFIER>
InChI=1S/C16H14N2O/c1-11-7-3-6-10-15(11)18-12(2)17-14-9-5-4-8-13(14)16(18)19/h3-10H,1-2H3

> <INCHI_KEY>
JEYCTXHKTXCGPB-UHFFFAOYSA-N

> <FORMULA>
C16H14N2O

> <MOLECULAR_WEIGHT>
250.2952

> <EXACT_MASS>
250.11061308

> <JCHEM_ACCEPTOR_COUNT>
2

> <JCHEM_AVERAGE_POLARIZABILITY>
27.315539103742815

> <JCHEM_BIOAVAILABILITY>
1

> <JCHEM_DONOR_COUNT>
0

> <JCHEM_FORMAL_CHARGE>
0

> <JCHEM_GHOSE_FILTER>
1

> <JCHEM_IUPAC>
2-methyl-3-(2-methylphenyl)-3,4-dihydroquinazolin-4-one

> <ALOGPS_LOGP>
2.54

> <JCHEM_LOGP>
3.1684964050000004

> <ALOGPS_LOGS>
-3.79

> <JCHEM_MDDR_LIKE_RULE>
0

> <JCHEM_NUMBER_OF_RINGS>
3

> <JCHEM_PHYSIOLOGICAL_CHARGE>
0

> <JCHEM_PKA_STRONGEST_BASIC>
-1.2210770832257203

> <JCHEM_POLAR_SURFACE_AREA>
32.67

> <JCHEM_REFRACTIVITY>
77.10540000000002

> <JCHEM_ROTATABLE_BOND_COUNT>
0

> <JCHEM_RULE_OF_FIVE>
1

> <ALOGPS_SOLUBILITY>
4.07e-02 g/l

> <JCHEM_TRADITIONAL_IUPAC>
sonal

> <JCHEM_VEBER_RULE>
1

> <DRUGBANK_ID>
DB04833

> <DRUG_GROUPS>
illicit; withdrawn

> <GENERIC_NAME>
Methaqualone

> <SYNONYMS>
metacualona; Methaqualone

> <INTERNATIONAL_BRANDS>
Quaalude

$$$$

  Mrv1572004031602562D          

 47 52  0  0  0  0            999 V2000
    1.1052    0.6898    0.0000 C   0  0  1  0  0  0  0  0  0  0  0  0
   -1.0469   -0.5344    0.0000 C   0  0  1  0  0  0  0  0  0  0  0  0
    1.0955   -0.1263    0.0000 C   0  0  2  0  0  0  0  0  0  0  0  0
    1.8923    0.9376    0.0000 C   0  0  2  0  0  0  0  0  0  0  0  0
    2.3636    0.2671    0.0000 C   0  0  1  0  0  0  0  0  0  0  0  0
   -0.3327   -0.1214    0.0000 C   0  0  2  0  0  0  0  0  0  0  0  0
    0.3814   -0.5344    0.0000 C   0  0  1  0  0  0  0  0  0  0  0  0
    3.1944    0.2575    0.0000 N   0  3  0  0  0  0  0  0  0  0  0  0
   -2.4753   -0.5344    0.0000 C   0  0  2  0  0  0  0  0  0  0  0  0
   -2.4753   -1.3603    0.0000 C   0  0  2  0  0  0  0  0  0  0  0  0
    1.8777   -0.3983    0.0000 C   0  0  0  0  0  0  0  0  0  0  0  0
   -1.7611   -0.1214    0.0000 C   0  0  0  0  0  0  0  0  0  0  0  0
   -1.0469   -1.3603    0.0000 C   0  0  2  0  0  0  0  0  0  0  0  0
   -3.1895   -0.1214    0.0000 N   0  0  0  0  0  0  0  0  0  0  0  0
    0.3910    1.1125    0.0000 C   0  0  0  0  0  0  0  0  0  0  0  0
    1.8826    1.7684    0.0000 O   0  0  0  0  0  0  0  0  0  0  0  0
   -1.7611   -1.7733    0.0000 C   0  0  0  0  0  0  0  0  0  0  0  0
   -0.3327    0.7044    0.0000 C   0  0  0  0  0  0  0  0  0  0  0  0
   -3.1895   -1.7684    0.0000 O   0  0  0  0  0  0  0  0  0  0  0  0
    0.3765   -1.3652    0.0000 C   0  0  0  0  0  0  0  0  0  0  0  0
    2.5968    2.1911    0.0000 C   0  0  0  0  0  0  0  0  0  0  0  0
   -3.1895   -2.5895    0.0000 C   0  0  0  0  0  0  0  0  0  0  0  0
   -0.3376   -1.7733    0.0000 C   0  0  0  0  0  0  0  0  0  0  0  0
   -2.4753   -3.0122    0.0000 O   0  0  0  0  0  0  0  0  0  0  0  0
    2.5919    3.0122    0.0000 O   0  0  0  0  0  0  0  0  0  0  0  0
    2.4656   -0.9716    0.0000 C   0  0  0  0  0  0  0  0  0  0  0  0
    3.1895   -0.5635    0.0000 C   0  0  0  0  0  0  0  0  0  0  0  0
    2.4656   -1.8024    0.0000 C   0  0  0  0  0  0  0  0  0  0  0  0
    1.0955    1.5206    0.0000 C   0  0  0  0  0  0  0  0  0  0  0  0
   -1.0518    0.2963    0.0000 C   0  0  0  0  0  0  0  0  0  0  0  0
    3.1944    1.0833    0.0000 C   0  0  0  0  0  0  0  0  0  0  0  0
    3.9036   -0.1554    0.0000 C   0  0  0  0  0  0  0  0  0  0  0  0
   -3.1895    0.7093    0.0000 C   0  0  0  0  0  0  0  0  0  0  0  0
   -3.9036   -0.5344    0.0000 C   0  0  0  0  0  0  0  0  0  0  0  0
    3.3110    1.7830    0.0000 C   0  0  0  0  0  0  0  0  0  0  0  0
   -3.9036   -3.0073    0.0000 C   0  0  0  0  0  0  0  0  0  0  0  0
    4.6178    0.2575    0.0000 C   0  0  0  0  0  0  0  0  0  0  0  0
    3.9036    1.4963    0.0000 C   0  0  0  0  0  0  0  0  0  0  0  0
    4.0251    2.1960    0.0000 C   0  0  0  0  0  0  0  0  0  0  0  0
   -3.8940    1.1174    0.0000 C   0  0  0  0  0  0  0  0  0  0  0  0
   -4.6178   -0.1117    0.0000 C   0  0  0  0  0  0  0  0  0  0  0  0
   -4.6178    0.7093    0.0000 C   0  0  0  0  0  0  0  0  0  0  0  0
    4.6178    1.0833    0.0000 C   0  0  0  0  0  0  0  0  0  0  0  0
   -1.0518   -2.1814    0.0000 H   0  0  0  0  0  0  0  0  0  0  0  0
   -0.3376   -0.9425    0.0000 H   0  0  0  0  0  0  0  0  0  0  0  0
    1.0906   -0.9571    0.0000 H   0  0  0  0  0  0  0  0  0  0  0  0
    0.3765    0.2866    0.0000 H   0  0  0  0  0  0  0  0  0  0  0  0
  2  6  1  0  0  0  0
  3  1  1  0  0  0  0
  4  1  1  0  0  0  0
  5  4  1  0  0  0  0
  6 18  1  0  0  0  0
  7  3  1  0  0  0  0
  5  8  1  1  0  0  0
  9 12  1  0  0  0  0
 10 17  1  0  0  0  0
 11  3  1  0  0  0  0
 12  2  1  0  0  0  0
 13  2  1  0  0  0  0
  9 14  1  1  0  0  0
 15  1  1  0  0  0  0
  4 16  1  1  0  0  0
 17 13  1  0  0  0  0
 18 15  1  0  0  0  0
 10 19  1  6  0  0  0
 20  7  1  0  0  0  0
 21 16  1  0  0  0  0
 22 19  1  0  0  0  0
 23 20  1  0  0  0  0
 24 22  2  0  0  0  0
 25 21  2  0  0  0  0
 26 27  1  0  0  0  0
 27  8  1  0  0  0  0
 28 26  2  0  0  0  0
  1 29  1  1  0  0  0
  2 30  1  1  0  0  0
 31  8  1  0  0  0  0
 32  8  1  0  0  0  0
 33 14  1  0  0  0  0
 34 14  1  0  0  0  0
 35 21  1  0  0  0  0
 36 22  1  0  0  0  0
 37 32  1  0  0  0  0
 38 31  1  0  0  0  0
 39 35  1  0  0  0  0
 40 33  1  0  0  0  0
 41 34  1  0  0  0  0
 42 40  1  0  0  0  0
 43 38  1  0  0  0  0
 13 44  1  6  0  0  0
  6 45  1  6  0  0  0
  3 46  1  6  0  0  0
  7 47  1  1  0  0  0
  5 11  1  0  0  0  0
  6  7  1  0  0  0  0
 23 13  1  0  0  0  0
 43 37  1  0  0  0  0
 10  9  1  0  0  0  0
 42 41  1  0  0  0  0
M  CHG  1   8   1
M  END
> <DATABASE_ID>
DB04834

> <DATABASE_NAME>
drugbank

> <SMILES>
[H][C@@]12C[C@@H]([C@H](OC(=O)CC)[C@@]1(C)CC[C@@]1([H])[C@@]2([H])CC[C@@]2([H])C[C@H](OC(C)=O)[C@H](C[C@]12C)N1CCCCC1)[N+]1(CC=C)CCCCC1

> <INCHI_IDENTIFIER>
InChI=1S/C37H61N2O4/c1-6-20-39(21-12-9-13-22-39)32-24-30-28-15-14-27-23-33(42-26(3)40)31(38-18-10-8-11-19-38)25-37(27,5)29(28)16-17-36(30,4)35(32)43-34(41)7-2/h6,27-33,35H,1,7-25H2,2-5H3/q+1/t27-,28+,29-,30-,31-,32-,33-,35-,36-,37-/m0/s1

> <INCHI_KEY>
HTIKWNNIPGXLGM-YLINKJIISA-N

> <FORMULA>
C37H61N2O4

> <MOLECULAR_WEIGHT>
597.904

> <EXACT_MASS>
597.462584872

> <JCHEM_ACCEPTOR_COUNT>
3

> <JCHEM_ATOM_COUNT>
104

> <JCHEM_AVERAGE_POLARIZABILITY>
72.24784322057764

> <JCHEM_BIOAVAILABILITY>
1

> <JCHEM_DONOR_COUNT>
0

> <JCHEM_FORMAL_CHARGE>
1

> <JCHEM_GHOSE_FILTER>
0

> <JCHEM_IUPAC>
1-[(1S,2S,4S,5S,7S,10R,11S,13S,14R,15S)-5-(acetyloxy)-2,15-dimethyl-4-(piperidin-1-yl)-14-(propanoyloxy)tetracyclo[8.7.0.0²,⁷.0¹¹,¹⁵]heptadecan-13-yl]-1-(prop-2-en-1-yl)piperidin-1-ium

> <ALOGPS_LOGP>
3.79

> <JCHEM_LOGP>
2.3238748235282536

> <ALOGPS_LOGS>
-8.13

> <JCHEM_MDDR_LIKE_RULE>
1

> <JCHEM_NUMBER_OF_RINGS>
6

> <JCHEM_PHYSIOLOGICAL_CHARGE>
2

> <JCHEM_PKA_STRONGEST_BASIC>
9.648388180869917

> <JCHEM_POLAR_SURFACE_AREA>
55.84

> <JCHEM_REFRACTIVITY>
183.09799999999996

> <JCHEM_ROTATABLE_BOND_COUNT>
9

> <JCHEM_RULE_OF_FIVE>
0

> <ALOGPS_SOLUBILITY>
4.64e-06 g/l

> <JCHEM_TRADITIONAL_IUPAC>
1-[(1S,2S,4S,5S,7S,10R,11S,13S,14R,15S)-5-(acetyloxy)-2,15-dimethyl-4-(piperidin-1-yl)-14-(propanoyloxy)tetracyclo[8.7.0.0²,⁷.0¹¹,¹⁵]heptadecan-13-yl]-1-(prop-2-en-1-yl)piperidin-1-ium

> <JCHEM_VEBER_RULE>
0

> <DRUGBANK_ID>
DB04834

> <DRUG_GROUPS>
approved; withdrawn

> <GENERIC_NAME>
Rapacuronium

> <PRODUCTS>
Raplon

> <SALTS>
Rapacuronium bromide

$$$$

  Mrv1718009041812582D          

 25 27  0  0  0  0            999 V2000
    3.6058   -0.2905    0.0000 C   0  0  0  0  0  0  0  0  0  0  0  0
    2.8874   -0.7245    0.0000 C   0  0  0  0  0  0  0  0  0  0  0  0
    2.1854   -0.2965    0.0000 C   0  0  0  0  0  0  0  0  0  0  0  0
    1.4582   -0.7458    0.0000 C   0  0  0  0  0  0  0  0  0  0  0  0
    0.7562   -0.3175    0.0000 C   0  0  0  0  0  0  0  0  0  0  0  0
    0.0332   -0.7659    0.0000 C   0  0  0  0  0  0  0  0  0  0  0  0
   -0.6697   -0.3338    0.0000 C   0  0  0  0  0  0  0  0  0  0  0  0
    4.3089   -0.7226    0.0000 O   0  0  0  0  0  0  0  0  0  0  0  0
    3.6247    0.5301    0.0000 O   0  0  0  0  0  0  0  0  0  0  0  0
   -1.3969   -0.7831    0.0000 N   0  0  0  0  0  0  0  0  0  0  0  0
   -2.3342    1.1040    0.0000 C   0  0  0  0  0  0  0  0  0  0  0  0
   -1.8691    0.4202    0.0000 C   0  0  0  0  0  0  0  0  0  0  0  0
   -2.0998   -0.3559    0.0000 C   0  0  0  0  0  0  0  0  0  0  0  0
   -2.8771   -0.6691    0.0000 C   0  0  0  0  0  0  0  0  0  0  0  0
   -3.5958   -0.2568    0.0000 C   0  0  0  0  0  0  0  0  0  0  0  0
   -3.7299    0.5683    0.0000 C   0  0  0  0  0  0  0  0  0  0  0  0
   -3.1454    1.1508    0.0000 C   0  0  0  0  0  0  0  0  0  0  0  0
   -1.0496    0.4860    0.0000 C   0  0  0  0  0  0  0  0  0  0  0  0
   -0.6908    1.2275    0.0000 C   0  0  0  0  0  0  0  0  0  0  0  0
   -1.1558    1.9073    0.0000 C   0  0  0  0  0  0  0  0  0  0  0  0
   -1.9795    1.8455    0.0000 C   0  0  0  0  0  0  0  0  0  0  0  0
   -4.3089   -0.6717    0.0000 C   0  0  0  0  0  0  0  0  0  0  0  0
   -4.3073   -1.4949    0.0000 C   0  0  0  0  0  0  0  0  0  0  0  0
   -3.5928   -1.9073    0.0000 C   0  0  0  0  0  0  0  0  0  0  0  0
   -2.8756   -1.4924    0.0000 C   0  0  0  0  0  0  0  0  0  0  0  0
  1  2  1  0  0  0  0
  2  3  1  0  0  0  0
  3  4  1  0  0  0  0
  4  5  1  0  0  0  0
  5  6  1  0  0  0  0
  6  7  1  0  0  0  0
  1  8  2  0  0  0  0
  1  9  1  0  0  0  0
 11 12  1  0  0  0  0
 12 13  1  0  0  0  0
 13 14  1  0  0  0  0
 14 15  1  0  0  0  0
 15 16  1  0  0  0  0
 16 17  1  0  0  0  0
 11 17  1  0  0  0  0
 18 19  1  0  0  0  0
 19 20  2  0  0  0  0
 20 21  1  0  0  0  0
 11 21  2  0  0  0  0
 12 18  2  0  0  0  0
 22 23  1  0  0  0  0
 23 24  2  0  0  0  0
 24 25  1  0  0  0  0
 14 25  2  0  0  0  0
 15 22  2  0  0  0  0
 10 13  1  0  0  0  0
  7 10  1  0  0  0  0
M  END
> <DATABASE_ID>
DB04836

> <DATABASE_NAME>
drugbank

> <SMILES>
OC(=O)CCCCCCNC1C2=CC=CC=C2CCC2=CC=CC=C12

> <INCHI_IDENTIFIER>
InChI=1S/C22H27NO2/c24-21(25)13-3-1-2-8-16-23-22-19-11-6-4-9-17(19)14-15-18-10-5-7-12-20(18)22/h4-7,9-12,22-23H,1-3,8,13-16H2,(H,24,25)

> <INCHI_KEY>
ONNOFKFOZAJDHT-UHFFFAOYSA-N

> <FORMULA>
C22H27NO2

> <MOLECULAR_WEIGHT>
337.463

> <EXACT_MASS>
337.204179113

> <JCHEM_ACCEPTOR_COUNT>
3

> <JCHEM_ATOM_COUNT>
52

> <JCHEM_AVERAGE_POLARIZABILITY>
39.70182722900067

> <JCHEM_BIOAVAILABILITY>
1

> <JCHEM_DONOR_COUNT>
2

> <JCHEM_FORMAL_CHARGE>
0

> <JCHEM_GHOSE_FILTER>
1

> <JCHEM_IUPAC>
7-({tricyclo[9.4.0.0^{3,8}]pentadeca-1(15),3,5,7,11,13-hexaen-2-yl}amino)heptanoic acid

> <ALOGPS_LOGP>
1.99

> <JCHEM_LOGP>
2.7434705815414273

> <ALOGPS_LOGS>
-6.04

> <JCHEM_MDDR_LIKE_RULE>
1

> <JCHEM_NUMBER_OF_RINGS>
3

> <JCHEM_PHYSIOLOGICAL_CHARGE>
0

> <JCHEM_PKA_STRONGEST_ACIDIC>
4.413066575668882

> <JCHEM_PKA_STRONGEST_BASIC>
9.173827850307378

> <JCHEM_POLAR_SURFACE_AREA>
49.33

> <JCHEM_REFRACTIVITY>
101.21100000000003

> <JCHEM_ROTATABLE_BOND_COUNT>
8

> <JCHEM_RULE_OF_FIVE>
1

> <ALOGPS_SOLUBILITY>
3.05e-04 g/l

> <JCHEM_TRADITIONAL_IUPAC>
7-{tricyclo[9.4.0.0^{3,8}]pentadeca-1(15),3,5,7,11,13-hexaen-2-ylamino}heptanoic acid

> <JCHEM_VEBER_RULE>
0

> <DRUGBANK_ID>
DB04836

> <DRUG_GROUPS>
illicit; withdrawn

> <GENERIC_NAME>
Amineptine

> <SYNONYMS>
Amineptino; Amineptinum

> <INTERNATIONAL_BRANDS>
Directim; Maneon; Neolior; Provector; Survector; Viaspera

> <SALTS>
Amineptine hydrochloride

$$$$
4837
  Mrv0541 02231217572D          

 20 21  0  0  1  0            999 V2000
    1.6500   -0.8250    0.0000 Cl  0  0  0  0  0  0  0  0  0  0  0  0
    2.2540    0.0000    0.0000 O   0  0  0  0  0  0  0  0  0  0  0  0
    5.1415    0.7144    0.0000 N   0  0  0  0  0  0  0  0  0  0  0  0
    3.0790    0.0000    0.0000 C   0  0  0  0  0  0  0  0  0  0  0  0
    3.9040    0.0000    0.0000 C   0  0  0  0  0  0  0  0  0  0  0  0
    4.3165    0.7144    0.0000 C   0  0  0  0  0  0  0  0  0  0  0  0
    3.0790   -0.8250    0.0000 C   0  0  0  0  0  0  0  0  0  0  0  0
    3.0790    0.8250    0.0000 C   0  0  0  0  0  0  0  0  0  0  0  0
    2.3644   -1.2375    0.0000 C   0  0  0  0  0  0  0  0  0  0  0  0
    3.7934   -1.2375    0.0000 C   0  0  0  0  0  0  0  0  0  0  0  0
    2.3644    1.2375    0.0000 C   0  0  0  0  0  0  0  0  0  0  0  0
    3.7934    1.2375    0.0000 C   0  0  0  0  0  0  0  0  0  0  0  0
    5.5540    1.4290    0.0000 C   0  0  0  0  0  0  0  0  0  0  0  0
    5.5540    0.0000    0.0000 C   0  0  0  0  0  0  0  0  0  0  0  0
    2.3644   -2.0625    0.0000 C   0  0  0  0  0  0  0  0  0  0  0  0
    3.7934   -2.0625    0.0000 C   0  0  0  0  0  0  0  0  0  0  0  0
    2.3644    2.0625    0.0000 C   0  0  0  0  0  0  0  0  0  0  0  0
    3.7934    2.0625    0.0000 C   0  0  0  0  0  0  0  0  0  0  0  0
    3.0790   -2.4750    0.0000 C   0  0  0  0  0  0  0  0  0  0  0  0
    3.0790    2.4750    0.0000 C   0  0  0  0  0  0  0  0  0  0  0  0
  1  9  1  0  0  0  0
  2  4  1  0  0  0  0
  3  6  1  0  0  0  0
  3 13  1  0  0  0  0
  3 14  1  0  0  0  0
  4  5  1  0  0  0  0
  4  7  1  0  0  0  0
  4  8  1  0  0  0  0
  5  6  1  0  0  0  0
  7  9  1  0  0  0  0
  7 10  2  0  0  0  0
  8 11  2  0  0  0  0
  8 12  1  0  0  0  0
  9 15  2  0  0  0  0
 10 16  1  0  0  0  0
 11 17  1  0  0  0  0
 12 18  2  0  0  0  0
 15 19  1  0  0  0  0
 16 19  2  0  0  0  0
 17 20  2  0  0  0  0
 18 20  1  0  0  0  0
M  END
> <DATABASE_ID>
DB04837

> <DATABASE_NAME>
drugbank

> <SMILES>
CN(C)CCC(O)(C1=CC=CC=C1)C1=CC=CC=C1Cl

> <INCHI_IDENTIFIER>
InChI=1S/C17H20ClNO/c1-19(2)13-12-17(20,14-8-4-3-5-9-14)15-10-6-7-11-16(15)18/h3-11,20H,12-13H2,1-2H3

> <INCHI_KEY>
WRCHFMBCVFFYEQ-UHFFFAOYSA-N

> <FORMULA>
C17H20ClNO

> <MOLECULAR_WEIGHT>
289.8

> <EXACT_MASS>
289.123341974

> <JCHEM_ACCEPTOR_COUNT>
2

> <JCHEM_AVERAGE_POLARIZABILITY>
31.252676189880283

> <JCHEM_BIOAVAILABILITY>
1

> <JCHEM_DONOR_COUNT>
1

> <JCHEM_FORMAL_CHARGE>
0

> <JCHEM_GHOSE_FILTER>
1

> <JCHEM_IUPAC>
1-(2-chlorophenyl)-3-(dimethylamino)-1-phenylpropan-1-ol

> <ALOGPS_LOGP>
3.51

> <JCHEM_LOGP>
3.4578342819999994

> <ALOGPS_LOGS>
-3.67

> <JCHEM_MDDR_LIKE_RULE>
0

> <JCHEM_NUMBER_OF_RINGS>
2

> <JCHEM_PHYSIOLOGICAL_CHARGE>
1

> <JCHEM_PKA_STRONGEST_ACIDIC>
13.183452891961362

> <JCHEM_PKA_STRONGEST_BASIC>
8.8734015582119

> <JCHEM_POLAR_SURFACE_AREA>
23.47

> <JCHEM_REFRACTIVITY>
84.93660000000003

> <JCHEM_ROTATABLE_BOND_COUNT>
5

> <JCHEM_RULE_OF_FIVE>
1

> <ALOGPS_SOLUBILITY>
6.21e-02 g/l

> <JCHEM_TRADITIONAL_IUPAC>
baltix

> <JCHEM_VEBER_RULE>
1

> <DRUGBANK_ID>
DB04837

> <DRUG_GROUPS>
approved; withdrawn

> <GENERIC_NAME>
Clofedanol

> <SYNONYMS>
Chlophedianol; Clofedanol; Clofedanolum; Clofedianolo

> <PRODUCTS>
Abanatuss Ped; Abanatuss Ped Drops; Atuss Da; Biclora; Carbaphen CH; Carbaphen Ped CH; Certuss; Certuss-D; Childrens DayClear Allergy Cough Chewables; Chlo Hist; Chlo Tuss; Chlo Tuss EX; Clofera; Clophed; Dayclear Allergy Relief; Dayclear Allergy Relief 8oz; Dayclear Allergy Relief Chewables; Dicel CD; Donatussin; DryMax AF; Giltuss Allergy Plus; Kroger Allergy Relief; Ninjacof; Ninjacof-A; Ninjacof-D; Panatuss PED; Phenagil CH; Poly Hist PD; Pro-chlo; Rondec-D; TexaClear; TexaClear Kids Allergy; Texaclear Fast Acting Allergy Relief; Trexbrom; Ulone; VanaCof AC; VanaTab AC; Vanacof; Vanacof Ape; Vanacof Dx; Vanacof G; Vanacof Gpe; Vanacof-8; Vanatab Dx; Y-tuss; biclora-D

> <SALTS>
Chlophedianol hydrochloride; Clofedanol hydrochloride

$$$$

  Mrv0541 02231218002D          

 34 36  0  0  1  0            999 V2000
    6.6001   -2.5484    0.0000 O   0  0  0  0  0  0  0  0  0  0  0  0
    7.0051   -1.0370    0.0000 O   0  0  0  0  0  0  0  0  0  0  0  0
    2.8876   -4.6919    0.0000 O   0  0  0  0  0  0  0  0  0  0  0  0
    2.8876   -3.2629    0.0000 O   0  0  0  0  0  0  0  0  0  0  0  0
    6.2906    5.1506    0.0000 O   0  0  0  0  0  0  0  0  0  0  0  0
    5.3626   -1.8339    0.0000 N   0  0  0  0  0  0  0  0  0  0  0  0
    4.5376   -3.2629    0.0000 N   0  0  0  0  0  0  0  0  0  0  0  0
    6.2906    0.2005    0.0000 N   0  0  0  0  0  0  0  0  0  0  0  0
    7.7196    4.3256    0.0000 N   0  0  0  0  0  0  0  0  0  0  0  0
    6.2906    4.3256    0.0000 N   0  0  0  0  0  0  0  0  0  0  0  0
    5.7751   -3.9774    0.0000 C   0  0  0  0  0  0  0  0  0  0  0  0
    5.3626   -3.2629    0.0000 C   0  0  2  0  0  0  0  0  0  0  0  0
    5.3626   -4.6919    0.0000 C   0  0  0  0  0  0  0  0  0  0  0  0
    6.6001   -3.9774    0.0000 C   0  0  0  0  0  0  0  0  0  0  0  0
    5.7751   -5.4063    0.0000 C   0  0  0  0  0  0  0  0  0  0  0  0
    7.0127   -4.6919    0.0000 C   0  0  0  0  0  0  0  0  0  0  0  0
    5.5761   -1.0370    0.0000 C   0  0  1  0  0  0  0  0  0  0  0  0
    6.6001   -5.4063    0.0000 C   0  0  0  0  0  0  0  0  0  0  0  0
    4.5657   -1.6204    0.0000 C   0  0  0  0  0  0  0  0  0  0  0  0
    4.7792   -0.8235    0.0000 C   0  0  0  0  0  0  0  0  0  0  0  0
    5.7751   -2.5484    0.0000 C   0  0  0  0  0  0  0  0  0  0  0  0
    6.2906   -0.6245    0.0000 C   0  0  0  0  0  0  0  0  0  0  0  0
    4.1251   -3.9774    0.0000 C   0  0  0  0  0  0  0  0  0  0  0  0
    3.3001   -3.9774    0.0000 C   0  0  0  0  0  0  0  0  0  0  0  0
    7.0051    0.6130    0.0000 C   0  0  0  0  0  0  0  0  0  0  0  0
    7.0051    1.4380    0.0000 C   0  0  0  0  0  0  0  0  0  0  0  0
    6.2906    1.8505    0.0000 C   0  0  0  0  0  0  0  0  0  0  0  0
    7.7196    1.8505    0.0000 C   0  0  0  0  0  0  0  0  0  0  0  0
    2.0625   -4.6919    0.0000 C   0  0  0  0  0  0  0  0  0  0  0  0
    6.2906    2.6755    0.0000 C   0  0  0  0  0  0  0  0  0  0  0  0
    7.7196    2.6755    0.0000 C   0  0  0  0  0  0  0  0  0  0  0  0
    7.0051    3.0880    0.0000 C   0  0  0  0  0  0  0  0  0  0  0  0
    1.6500   -5.4063    0.0000 C   0  0  0  0  0  0  0  0  0  0  0  0
    7.0051    3.9131    0.0000 C   0  0  0  0  0  0  0  0  0  0  0  0
  1 21  2  0  0  0  0
  2 22  2  0  0  0  0
  3 24  1  0  0  0  0
  3 29  1  0  0  0  0
  4 24  2  0  0  0  0
  5 10  1  0  0  0  0
  6 17  1  0  0  0  0
  6 19  1  0  0  0  0
  6 21  1  0  0  0  0
 12  7  1  1  0  0  0
  7 23  1  0  0  0  0
  8 22  1  0  0  0  0
  8 25  1  0  0  0  0
  9 34  1  0  0  0  0
 10 34  2  0  0  0  0
 11 12  1  0  0  0  0
 11 13  1  0  0  0  0
 11 14  1  0  0  0  0
 12 21  1  0  0  0  0
 13 15  1  0  0  0  0
 14 16  1  0  0  0  0
 15 18  1  0  0  0  0
 16 18  1  0  0  0  0
 17 20  1  0  0  0  0
 17 22  1  1  0  0  0
 19 20  1  0  0  0  0
 23 24  1  0  0  0  0
 25 26  1  0  0  0  0
 26 27  2  0  0  0  0
 26 28  1  0  0  0  0
 27 30  1  0  0  0  0
 28 31  2  0  0  0  0
 29 33  1  0  0  0  0
 30 32  2  0  0  0  0
 31 32  1  0  0  0  0
 32 34  1  0  0  0  0
M  END
> <DATABASE_ID>
DB04898

> <DATABASE_NAME>
drugbank

> <SMILES>
CCOC(=O)CN[C@@H](C(=O)N1CC[C@H]1C(=O)NCC1=CC=C(C=C1)C(\N)=N\O)C1CCCCC1

> <INCHI_IDENTIFIER>
InChI=1S/C24H35N5O5/c1-2-34-20(30)15-26-21(17-6-4-3-5-7-17)24(32)29-13-12-19(29)23(31)27-14-16-8-10-18(11-9-16)22(25)28-33/h8-11,17,19,21,26,33H,2-7,12-15H2,1H3,(H2,25,28)(H,27,31)/t19-,21+/m0/s1

> <INCHI_KEY>
ZXIBCJHYVWYIKI-PZJWPPBQSA-N

> <FORMULA>
C24H35N5O5

> <MOLECULAR_WEIGHT>
473.5652

> <EXACT_MASS>
473.263819255

> <JCHEM_ACCEPTOR_COUNT>
7

> <JCHEM_AVERAGE_POLARIZABILITY>
52.148328970556044

> <JCHEM_BIOAVAILABILITY>
1

> <JCHEM_DONOR_COUNT>
4

> <JCHEM_FORMAL_CHARGE>
0

> <JCHEM_GHOSE_FILTER>
1

> <JCHEM_IUPAC>
ethyl 2-{[(1R)-1-cyclohexyl-2-[(2S)-2-[({4-[(Z)-N'-hydroxycarbamimidoyl]phenyl}methyl)carbamoyl]azetidin-1-yl]-2-oxoethyl]amino}acetate

> <ALOGPS_LOGP>
1.35

> <JCHEM_LOGP>
0.8693069373333331

> <ALOGPS_LOGS>
-3.75

> <JCHEM_MDDR_LIKE_RULE>
1

> <JCHEM_NUMBER_OF_RINGS>
3

> <JCHEM_PHYSIOLOGICAL_CHARGE>
0

> <JCHEM_PKA>
15.13038811042912

> <JCHEM_PKA_STRONGEST_ACIDIC>
9.63863186879247

> <JCHEM_PKA_STRONGEST_BASIC>
5.47950494930864

> <JCHEM_POLAR_SURFACE_AREA>
146.35000000000002

> <JCHEM_REFRACTIVITY>
126.56619999999998

> <JCHEM_ROTATABLE_BOND_COUNT>
11

> <JCHEM_RULE_OF_FIVE>
1

> <ALOGPS_SOLUBILITY>
8.45e-02 g/l

> <JCHEM_TRADITIONAL_IUPAC>
ximelagatran

> <JCHEM_VEBER_RULE>
0

> <DRUGBANK_ID>
DB04898

> <DRUG_GROUPS>
approved; investigational; withdrawn

> <GENERIC_NAME>
Ximelagatran

> <SYNONYMS>
ethyl 2-[[(1R)-1-cyclohexyl-2- [(2S)-2-[[4-(N'-hydroxycarbamimidoyl) phenyl]methylcarbamoyl]azetidin-1-yl]- 2-oxo-ethyl]amino]acetate; Ximelagatran; Ximélagatran; Ximelagatrán; Ximelagatranum

$$$$

  Mrv0541 02231218132D          

 51 55  0  0  1  0            999 V2000
    7.2607    0.1836    0.0000 O   0  0  0  0  0  0  0  0  0  0  0  0
    6.6001   -0.7254    0.0000 O   0  0  0  0  0  0  0  0  0  0  0  0
    5.7751   -3.5834    0.0000 O   0  0  0  0  0  0  0  0  0  0  0  0
    9.7238    1.8515    0.0000 O   0  0  0  0  0  0  0  0  0  0  0  0
    7.8548    2.9791    0.0000 O   0  0  0  0  0  0  0  0  0  0  0  0
    2.8876   -2.8689    0.0000 O   0  0  0  0  0  0  0  0  0  0  0  0
    7.8377   -1.4399    0.0000 N   0  0  0  0  0  0  0  0  0  0  0  0
    8.6197    0.6253    0.0000 N   0  0  0  0  0  0  0  0  0  0  0  0
    5.7751   -2.1545    0.0000 N   0  0  0  0  0  0  0  0  0  0  0  0
    4.1251   -2.1545    0.0000 N   0  0  0  0  0  0  0  0  0  0  0  0
    9.2139    3.4208    0.0000 N   0  0  0  0  0  0  0  0  0  0  0  0
    2.0625   -1.4399    0.0000 N   0  0  0  0  0  0  0  0  0  0  0  0
    2.8876   -0.0110    0.0000 N   0  0  0  0  0  0  0  0  0  0  0  0
    9.1072   -1.0274    0.0000 C   0  0  1  0  0  0  0  0  0  0  0  0
    9.1072   -1.8524    0.0000 C   0  0  1  0  0  0  0  0  0  0  0  0
    8.3226   -0.7725    0.0000 C   0  0  1  0  0  0  0  0  0  0  0  0
    9.8879   -0.7760    0.0000 C   0  0  0  0  0  0  0  0  0  0  0  0
    9.8879   -2.1039    0.0000 C   0  0  0  0  0  0  0  0  0  0  0  0
    8.3226   -2.1074    0.0000 C   0  0  0  0  0  0  0  0  0  0  0  0
   10.3694   -1.4399    0.0000 C   0  0  0  0  0  0  0  0  0  0  0  0
    8.0677    0.0121    0.0000 C   0  0  0  0  0  0  0  0  0  0  0  0
    7.0127   -1.4399    0.0000 C   0  0  0  0  0  0  0  0  0  0  0  0
    6.6001   -2.1545    0.0000 C   0  0  2  0  0  0  0  0  0  0  0  0
    7.0127   -2.8689    0.0000 C   0  0  0  0  0  0  0  0  0  0  0  0
    8.3648    1.4099    0.0000 C   0  0  1  0  0  0  0  0  0  0  0  0
    7.4252   -3.5834    0.0000 C   0  0  0  0  0  0  0  0  0  0  0  0
    6.2982   -3.2814    0.0000 C   0  0  0  0  0  0  0  0  0  0  0  0
    7.7271   -2.4564    0.0000 C   0  0  0  0  0  0  0  0  0  0  0  0
    4.1251   -3.5834    0.0000 C   0  0  0  0  0  0  0  0  0  0  0  0
    4.5376   -2.8689    0.0000 C   0  0  1  0  0  0  0  0  0  0  0  0
    5.3626   -2.8689    0.0000 C   0  0  0  0  0  0  0  0  0  0  0  0
    7.5577    1.5814    0.0000 C   0  0  0  0  0  0  0  0  0  0  0  0
    3.3001   -3.5834    0.0000 C   0  0  0  0  0  0  0  0  0  0  0  0
    4.5376   -4.2979    0.0000 C   0  0  0  0  0  0  0  0  0  0  0  0
    8.9168    2.0230    0.0000 C   0  0  0  0  0  0  0  0  0  0  0  0
    2.8876   -4.2979    0.0000 C   0  0  0  0  0  0  0  0  0  0  0  0
    4.1251   -5.0124    0.0000 C   0  0  0  0  0  0  0  0  0  0  0  0
    3.3001   -5.0124    0.0000 C   0  0  0  0  0  0  0  0  0  0  0  0
    8.9590    4.2054    0.0000 C   0  0  0  0  0  0  0  0  0  0  0  0
    7.3028    2.3661    0.0000 C   0  0  0  0  0  0  0  0  0  0  0  0
    9.1305    5.0124    0.0000 C   0  0  0  0  0  0  0  0  0  0  0  0
    8.3459    4.7575    0.0000 C   0  0  0  0  0  0  0  0  0  0  0  0
    8.6619    2.8076    0.0000 C   0  0  0  0  0  0  0  0  0  0  0  0
    6.4959    2.5376    0.0000 C   0  0  0  0  0  0  0  0  0  0  0  0
    3.3001   -2.1545    0.0000 C   0  0  0  0  0  0  0  0  0  0  0  0
    2.8876   -1.4399    0.0000 C   0  0  0  0  0  0  0  0  0  0  0  0
    3.3001   -0.7254    0.0000 C   0  0  0  0  0  0  0  0  0  0  0  0
    1.6500   -0.7254    0.0000 C   0  0  0  0  0  0  0  0  0  0  0  0
    2.0625   -0.0110    0.0000 C   0  0  0  0  0  0  0  0  0  0  0  0
    9.1081   -0.3674    0.0000 H   0  0  0  0  0  0  0  0  0  0  0  0
    9.1081   -2.5124    0.0000 H   0  0  0  0  0  0  0  0  0  0  0  0
  1 21  2  0  0  0  0
  2 22  2  0  0  0  0
  3 31  2  0  0  0  0
  4 35  2  0  0  0  0
  5 43  2  0  0  0  0
  6 45  2  0  0  0  0
  7 16  1  0  0  0  0
  7 19  1  0  0  0  0
  7 22  1  0  0  0  0
  8 21  1  0  0  0  0
 25  8  1  1  0  0  0
 23  9  1  6  0  0  0
  9 31  1  0  0  0  0
 30 10  1  6  0  0  0
 10 45  1  0  0  0  0
 11 39  1  0  0  0  0
 11 43  1  0  0  0  0
 12 46  2  0  0  0  0
 12 48  1  0  0  0  0
 13 47  2  0  0  0  0
 13 49  1  0  0  0  0
 14 15  1  0  0  0  0
 14 16  1  0  0  0  0
 14 17  1  0  0  0  0
 14 50  1  6  0  0  0
 15 18  1  0  0  0  0
 15 19  1  0  0  0  0
 15 51  1  6  0  0  0
 16 21  1  6  0  0  0
 17 20  1  0  0  0  0
 18 20  1  0  0  0  0
 22 23  1  0  0  0  0
 23 24  1  0  0  0  0
 24 26  1  0  0  0  0
 24 27  1  0  0  0  0
 24 28  1  0  0  0  0
 25 32  1  0  0  0  0
 25 35  1  0  0  0  0
 29 30  1  0  0  0  0
 29 33  1  0  0  0  0
 29 34  1  0  0  0  0
 30 31  1  0  0  0  0
 32 40  1  0  0  0  0
 33 36  1  0  0  0  0
 34 37  1  0  0  0  0
 35 43  1  0  0  0  0
 36 38  1  0  0  0  0
 37 38  1  0  0  0  0
 39 41  1  0  0  0  0
 39 42  1  0  0  0  0
 40 44  1  0  0  0  0
 41 42  1  0  0  0  0
 45 46  1  0  0  0  0
 46 47  1  0  0  0  0
 48 49  2  0  0  0  0
M  END
> <DATABASE_ID>
DB05521

> <DATABASE_NAME>
drugbank

> <SMILES>
[H][C@@]12CCC[C@]1([H])[C@H](N(C2)C(=O)[C@@H](NC(=O)[C@@H](NC(=O)C1=NC=CN=C1)C1CCCCC1)C(C)(C)C)C(=O)N[C@@H](CCC)C(=O)C(=O)NC1CC1

> <INCHI_IDENTIFIER>
InChI=1S/C36H53N7O6/c1-5-10-25(29(44)34(48)39-23-15-16-23)40-33(47)28-24-14-9-13-22(24)20-43(28)35(49)30(36(2,3)4)42-32(46)27(21-11-7-6-8-12-21)41-31(45)26-19-37-17-18-38-26/h17-19,21-25,27-28,30H,5-16,20H2,1-4H3,(H,39,48)(H,40,47)(H,41,45)(H,42,46)/t22-,24-,25-,27-,28-,30+/m0/s1

> <INCHI_KEY>
BBAWEDCPNXPBQM-GDEBMMAJSA-N

> <FORMULA>
C36H53N7O6

> <MOLECULAR_WEIGHT>
679.8493

> <EXACT_MASS>
679.405732463

> <JCHEM_ACCEPTOR_COUNT>
8

> <JCHEM_AVERAGE_POLARIZABILITY>
74.36952961559653

> <JCHEM_BIOAVAILABILITY>
0

> <JCHEM_DONOR_COUNT>
4

> <JCHEM_FORMAL_CHARGE>
0

> <JCHEM_GHOSE_FILTER>
0

> <JCHEM_IUPAC>
(3S)-3-{[(1S,3aR,6aS)-2-[(2S)-2-[(2S)-2-cyclohexyl-2-(pyrazin-2-ylformamido)acetamido]-3,3-dimethylbutanoyl]-octahydrocyclopenta[c]pyrrol-1-yl]formamido}-N-cyclopropyl-2-oxohexanamide

> <ALOGPS_LOGP>
2.56

> <JCHEM_LOGP>
2.580292300333334

> <ALOGPS_LOGS>
-4.28

> <JCHEM_MDDR_LIKE_RULE>
1

> <JCHEM_NUMBER_OF_RINGS>
5

> <JCHEM_PHYSIOLOGICAL_CHARGE>
0

> <JCHEM_PKA>
12.38745817101361

> <JCHEM_PKA_STRONGEST_ACIDIC>
11.857239072699072

> <JCHEM_PKA_STRONGEST_BASIC>
-0.6902823851666152

> <JCHEM_POLAR_SURFACE_AREA>
179.55999999999995

> <JCHEM_REFRACTIVITY>
180.04029999999997

> <JCHEM_ROTATABLE_BOND_COUNT>
14

> <JCHEM_RULE_OF_FIVE>
0

> <ALOGPS_SOLUBILITY>
3.55e-02 g/l

> <JCHEM_TRADITIONAL_IUPAC>
incivek

> <JCHEM_VEBER_RULE>
0

> <DRUGBANK_ID>
DB05521

> <DRUG_GROUPS>
approved; withdrawn

> <GENERIC_NAME>
Telaprevir

> <SYNONYMS>
(1S,3aR,6aS)-(2S)-2-cyclohexyl-N-(pyrazinylcarbonyl)glycyl-3-methyl-L-valyl-N-((1S)-1-((cyclopropylamino)oxoacetyl)butyl)octahydrocyclopenta(c)pyrrole-1-carboxamide; Telaprevir

> <PRODUCTS>
Incivek; Incivo

$$$$

  Mrv0541 02231218142D          

 31 35  0  0  0  0            999 V2000
    1.6500   -0.3414    0.0000 Cl  0  0  0  0  0  0  0  0  0  0  0  0
    5.5992   -4.9670    0.0000 F   0  0  0  0  0  0  0  0  0  0  0  0
    8.1145    3.3560    0.0000 O   0  0  0  0  0  0  0  0  0  0  0  0
    5.3430    1.8501    0.0000 N   0  0  0  0  0  0  0  0  0  0  0  0
    4.5741   -1.8304    0.0000 N   0  0  0  0  0  0  0  0  0  0  0  0
    6.6628    3.5885    0.0000 N   0  0  0  0  0  0  0  0  0  0  0  0
    7.4493    4.6672    0.0000 N   0  0  0  0  0  0  0  0  0  0  0  0
    4.8304    0.2817    0.0000 C   0  0  0  0  0  0  0  0  0  0  0  0
    4.2794    0.8957    0.0000 C   0  0  0  0  0  0  0  0  0  0  0  0
    5.6377    0.4518    0.0000 C   0  0  0  0  0  0  0  0  0  0  0  0
    4.5357    1.6799    0.0000 C   0  0  0  0  0  0  0  0  0  0  0  0
    5.8939    1.2360    0.0000 C   0  0  0  0  0  0  0  0  0  0  0  0
    4.5741   -0.5025    0.0000 C   0  0  0  0  0  0  0  0  0  0  0  0
    5.5992    2.6343    0.0000 C   0  0  0  0  0  0  0  0  0  0  0  0
    3.7935   -0.7539    0.0000 C   0  0  0  0  0  0  0  0  0  0  0  0
    6.4066    2.8044    0.0000 C   0  0  0  0  0  0  0  0  0  0  0  0
    5.0556   -1.1664    0.0000 C   0  0  0  0  0  0  0  0  0  0  0  0
    3.7935   -1.5789    0.0000 C   0  0  0  0  0  0  0  0  0  0  0  0
    6.1791    4.2569    0.0000 C   0  0  0  0  0  0  0  0  0  0  0  0
    3.0790   -0.3414    0.0000 C   0  0  0  0  0  0  0  0  0  0  0  0
    6.6652    4.9235    0.0000 C   0  0  0  0  0  0  0  0  0  0  0  0
    3.0790   -1.9914    0.0000 C   0  0  0  0  0  0  0  0  0  0  0  0
    4.8304   -2.6145    0.0000 C   0  0  0  0  0  0  0  0  0  0  0  0
    7.4479    3.8421    0.0000 C   0  0  0  0  0  0  0  0  0  0  0  0
    2.3645   -0.7539    0.0000 C   0  0  0  0  0  0  0  0  0  0  0  0
    2.3645   -1.5789    0.0000 C   0  0  0  0  0  0  0  0  0  0  0  0
    5.6377   -2.7846    0.0000 C   0  0  0  0  0  0  0  0  0  0  0  0
    4.2794   -3.2286    0.0000 C   0  0  0  0  0  0  0  0  0  0  0  0
    5.8939   -3.5688    0.0000 C   0  0  0  0  0  0  0  0  0  0  0  0
    4.5357   -4.0128    0.0000 C   0  0  0  0  0  0  0  0  0  0  0  0
    5.3430   -4.1829    0.0000 C   0  0  0  0  0  0  0  0  0  0  0  0
  1 25  1  0  0  0  0
  2 31  1  0  0  0  0
  3 24  2  0  0  0  0
  4 11  1  0  0  0  0
  4 12  1  0  0  0  0
  4 14  1  0  0  0  0
  5 17  1  0  0  0  0
  5 18  1  0  0  0  0
  5 23  1  0  0  0  0
  6 16  1  0  0  0  0
  6 19  1  0  0  0  0
  6 24  1  0  0  0  0
  7 21  1  0  0  0  0
  7 24  1  0  0  0  0
  8  9  1  0  0  0  0
  8 10  1  0  0  0  0
  8 13  1  0  0  0  0
  9 11  1  0  0  0  0
 10 12  1  0  0  0  0
 13 15  1  0  0  0  0
 13 17  2  0  0  0  0
 14 16  1  0  0  0  0
 15 18  2  0  0  0  0
 15 20  1  0  0  0  0
 18 22  1  0  0  0  0
 19 21  1  0  0  0  0
 20 25  2  0  0  0  0
 22 26  2  0  0  0  0
 23 27  2  0  0  0  0
 23 28  1  0  0  0  0
 25 26  1  0  0  0  0
 27 29  1  0  0  0  0
 28 30  2  0  0  0  0
 29 31  2  0  0  0  0
 30 31  1  0  0  0  0
M  END
> <DATABASE_ID>
DB06144

> <DATABASE_NAME>
drugbank

> <SMILES>
FC1=CC=C(C=C1)N1C=C(C2CCN(CCN3CCNC3=O)CC2)C2=C1C=CC(Cl)=C2

> <INCHI_IDENTIFIER>
InChI=1S/C24H26ClFN4O/c25-18-1-6-23-21(15-18)22(16-30(23)20-4-2-19(26)3-5-20)17-7-10-28(11-8-17)13-14-29-12-9-27-24(29)31/h1-6,15-17H,7-14H2,(H,27,31)

> <INCHI_KEY>
GZKLJWGUPQBVJQ-UHFFFAOYSA-N

> <FORMULA>
C24H26ClFN4O

> <MOLECULAR_WEIGHT>
440.941

> <EXACT_MASS>
440.177917386

> <JCHEM_ACCEPTOR_COUNT>
2

> <JCHEM_AVERAGE_POLARIZABILITY>
47.17150851412664

> <JCHEM_BIOAVAILABILITY>
1

> <JCHEM_DONOR_COUNT>
1

> <JCHEM_FORMAL_CHARGE>
0

> <JCHEM_GHOSE_FILTER>
0

> <JCHEM_IUPAC>
1-(2-{4-[5-chloro-1-(4-fluorophenyl)-1H-indol-3-yl]piperidin-1-yl}ethyl)imidazolidin-2-one

> <ALOGPS_LOGP>
4.29

> <JCHEM_LOGP>
3.7738

> <ALOGPS_LOGS>
-4.66

> <JCHEM_MDDR_LIKE_RULE>
0

> <JCHEM_NUMBER_OF_RINGS>
5

> <JCHEM_PHYSIOLOGICAL_CHARGE>
1

> <JCHEM_PKA_STRONGEST_ACIDIC>
14.358150699540666

> <JCHEM_PKA_STRONGEST_BASIC>
8.585054865216964

> <JCHEM_POLAR_SURFACE_AREA>
40.510000000000005

> <JCHEM_REFRACTIVITY>
131.7697

> <JCHEM_ROTATABLE_BOND_COUNT>
5

> <JCHEM_RULE_OF_FIVE>
1

> <ALOGPS_SOLUBILITY>
9.63e-03 g/l

> <JCHEM_TRADITIONAL_IUPAC>
sertindole

> <JCHEM_VEBER_RULE>
0

> <DRUGBANK_ID>
DB06144

> <DRUG_GROUPS>
approved; investigational; withdrawn

> <GENERIC_NAME>
Sertindole

> <SYNONYMS>
1-[2-[4-[5-chloro-1-(4-fluorophenyl)-indol-3-yl]-1-piperidyl]ethyl]imidazolidin-2-one; Sertindol; Sertindole; Sertindolum

> <INTERNATIONAL_BRANDS>
Serdolect; SerLect

$$$$

  Mrv1718011201715112D          

 27 32  0  0  0  0            999 V2000
   -0.1047   -0.3599    0.0000 C   0  0  1  0  0  0  0  0  0  0  0  0
    0.3094    0.3515    0.0000 C   0  0  2  0  0  0  0  0  0  0  0  0
   -0.9281   -0.3647    0.0000 C   0  0  0  0  0  0  0  0  0  0  0  0
    0.2996   -1.0761    0.0000 C   0  0  1  0  0  0  0  0  0  0  0  0
   -1.3375   -1.0761    0.0000 C   0  0  0  0  0  0  0  0  0  0  0  0
   -0.4848   -1.5877    0.0000 O   0  0  0  0  0  0  0  0  0  0  0  0
   -0.0998    1.0629    0.0000 C   0  0  2  0  0  0  0  0  0  0  0  0
    0.3142    1.7791    0.0000 N   0  0  0  0  0  0  0  0  0  0  0  0
   -1.3375    0.3515    0.0000 C   0  0  0  0  0  0  0  0  0  0  0  0
   -0.9281    1.0677    0.0000 C   0  0  0  0  0  0  0  0  0  0  0  0
    1.1231   -1.0809    0.0000 C   0  0  0  0  0  0  0  0  0  0  0  0
   -0.5237    0.3611    0.0000 C   0  0  0  0  0  0  0  0  0  0  0  0
    1.1328    0.3466    0.0000 C   0  0  0  0  0  0  0  0  0  0  0  0
    1.0257    2.1981    0.0000 C   0  0  0  0  0  0  0  0  0  0  0  0
   -2.1657   -1.0761    0.0000 C   0  0  0  0  0  0  0  0  0  0  0  0
   -0.5140    1.7791    0.0000 C   0  0  0  0  0  0  0  0  0  0  0  0
    1.7468    1.7937    0.0000 C   0  0  0  0  0  0  0  0  0  0  0  0
    2.1707    1.0823    0.0000 C   0  0  0  0  0  0  0  0  0  0  0  0
    2.5800    1.8034    0.0000 C   0  0  0  0  0  0  0  0  0  0  0  0
    1.5374   -0.3696    0.0000 C   0  0  0  0  0  0  0  0  0  0  0  0
   -2.1657    0.3515    0.0000 C   0  0  0  0  0  0  0  0  0  0  0  0
    0.7187    1.0725    0.0000 O   0  0  0  0  0  0  0  0  0  0  0  0
   -2.5751   -0.3647    0.0000 C   0  0  0  0  0  0  0  0  0  0  0  0
    1.5324   -1.8021    0.0000 C   0  0  0  0  0  0  0  0  0  0  0  0
   -2.5800   -1.7924    0.0000 O   0  0  0  0  0  0  0  0  0  0  0  0
    0.6297   -2.1981    0.0000 H   0  0  0  0  0  0  0  0  0  0  0  0
   -0.6812    2.0774    0.0000 H   0  0  0  0  0  0  0  0  0  0  0  0
  2  1  1  0  0  0  0
  3  1  1  0  0  0  0
  4  1  1  0  0  0  0
  5  3  1  0  0  0  0
  6  4  1  0  0  0  0
  7  2  1  0  0  0  0
  7  8  1  0  0  0  0
  9  3  2  0  0  0  0
 10  7  1  0  0  0  0
 11  4  1  0  0  0  0
  1 12  1  1  0  0  0
 13  2  1  0  0  0  0
 14  8  1  0  0  0  0
 15  5  2  0  0  0  0
 16 12  1  0  0  0  0
 17 14  1  0  0  0  0
 18 17  1  0  0  0  0
 19 17  1  0  0  0  0
 20 13  1  0  0  0  0
 21  9  1  0  0  0  0
  2 22  1  1  0  0  0
 23 21  2  0  0  0  0
 24 11  2  0  0  0  0
 25 15  1  0  0  0  0
  4 26  1  1  0  0  0
 16  8  1  0  0  0  0
  6  5  1  0  0  0  0
 10  9  1  0  0  0  0
 20 11  1  0  0  0  0
 15 23  1  0  0  0  0
 18 19  1  0  0  0  0
  7 27  1  6  0  0  0
M  END
> <DATABASE_ID>
DB06230

> <DATABASE_NAME>
drugbank

> <SMILES>
[H][C@@]12OC3=C(O)C=CC4=C3[C@@]11CCN(CC3CC3)[C@]([H])(C4)[C@]1(O)CCC2=C

> <INCHI_IDENTIFIER>
InChI=1S/C21H25NO3/c1-12-6-7-21(24)16-10-14-4-5-15(23)18-17(14)20(21,19(12)25-18)8-9-22(16)11-13-2-3-13/h4-5,13,16,19,23-24H,1-3,6-11H2/t16-,19+,20+,21-/m1/s1

> <INCHI_KEY>
WJBLNOPPDWQMCH-MBPVOVBZSA-N

> <FORMULA>
C21H25NO3

> <MOLECULAR_WEIGHT>
339.435

> <EXACT_MASS>
339.183443669

> <JCHEM_ACCEPTOR_COUNT>
4

> <JCHEM_ATOM_COUNT>
50

> <JCHEM_AVERAGE_POLARIZABILITY>
37.265904687754585

> <JCHEM_BIOAVAILABILITY>
1

> <JCHEM_DONOR_COUNT>
2

> <JCHEM_FORMAL_CHARGE>
0

> <JCHEM_GHOSE_FILTER>
1

> <JCHEM_IUPAC>
(1S,5R,13S,17S)-4-(cyclopropylmethyl)-14-methylidene-12-oxa-4-azapentacyclo[9.6.1.0^{1,13}.0^{5,17}.0^{7,18}]octadeca-7(18),8,10-triene-10,17-diol

> <ALOGPS_LOGP>
2.24

> <JCHEM_LOGP>
1.9476479668885207

> <ALOGPS_LOGS>
-2.61

> <JCHEM_MDDR_LIKE_RULE>
0

> <JCHEM_NUMBER_OF_RINGS>
6

> <JCHEM_PHYSIOLOGICAL_CHARGE>
1

> <JCHEM_PKA>
13.592680362095027

> <JCHEM_PKA_STRONGEST_ACIDIC>
10.352080701176586

> <JCHEM_PKA_STRONGEST_BASIC>
9.566401408977358

> <JCHEM_POLAR_SURFACE_AREA>
52.93000000000001

> <JCHEM_REFRACTIVITY>
95.20950000000002

> <JCHEM_ROTATABLE_BOND_COUNT>
2

> <JCHEM_RULE_OF_FIVE>
1

> <ALOGPS_SOLUBILITY>
8.39e-01 g/l

> <JCHEM_TRADITIONAL_IUPAC>
(1S,5R,13S,17S)-4-(cyclopropylmethyl)-14-methylidene-12-oxa-4-azapentacyclo[9.6.1.0^{1,13}.0^{5,17}.0^{7,18}]octadeca-7(18),8,10-triene-10,17-diol

> <JCHEM_VEBER_RULE>
0

> <DRUGBANK_ID>
DB06230

> <DRUG_GROUPS>
approved; investigational; withdrawn

> <GENERIC_NAME>
Nalmefene

> <SYNONYMS>
Nalmefene; Nalmefeno

> <PRODUCTS>
Revex; Selincro

> <SALTS>
Nalmefene hydrochloride; Nalmefene hydrochloride dihydrate

$$$$

  Mrv1572009161514202D          

 12 11  0  0  0  0            999 V2000
    1.0547   -0.9668    0.0000 C   0  0  0  0  0  0  0  0  0  0  0  0
    1.7691   -0.5543    0.0000 C   0  0  0  0  0  0  0  0  0  0  0  0
    2.4836   -0.9668    0.0000 C   0  0  0  0  0  0  0  0  0  0  0  0
    3.1981   -0.5543    0.0000 C   0  0  0  0  0  0  0  0  0  0  0  0
    3.9125   -0.1418    0.0000 C   0  0  0  0  0  0  0  0  0  0  0  0
    4.6270   -0.5543    0.0000 O   0  0  0  0  0  0  0  0  0  0  0  0
    0.3402   -0.5543    0.0000 N   0  0  0  0  0  0  0  0  0  0  0  0
    3.9125    0.6832    0.0000 O   0  0  0  0  0  0  0  0  0  0  0  0
    2.7856    0.1601    0.0000 C   0  0  0  0  0  0  0  0  0  0  0  0
    1.9606    0.1601    0.0000 F   0  0  0  0  0  0  0  0  0  0  0  0
    3.1981    0.8746    0.0000 F   0  0  0  0  0  0  0  0  0  0  0  0
    3.0225   -1.2367    0.0000 N   0  0  0  0  0  0  0  0  0  0  0  0
  2  1  1  0  0  0  0
  3  2  1  0  0  0  0
  4  3  1  0  0  0  0
  5  4  1  0  0  0  0
  6  5  1  0  0  0  0
  7  1  1  0  0  0  0
  8  5  2  0  0  0  0
  9  4  1  0  0  0  0
 10  9  1  0  0  0  0
 11  9  1  0  0  0  0
  4 12  1  0  0  0  0
M  END
> <DATABASE_ID>
DB06243

> <DATABASE_NAME>
drugbank

> <SMILES>
NCCCC(N)(C(F)F)C(O)=O

> <INCHI_IDENTIFIER>
InChI=1S/C6H12F2N2O2/c7-4(8)6(10,5(11)12)2-1-3-9/h4H,1-3,9-10H2,(H,11,12)

> <INCHI_KEY>
VLCYCQAOQCDTCN-UHFFFAOYSA-N

> <FORMULA>
C6H12F2N2O2

> <MOLECULAR_WEIGHT>
182.171

> <EXACT_MASS>
182.08668396

> <JCHEM_ACCEPTOR_COUNT>
4

> <JCHEM_ATOM_COUNT>
24

> <JCHEM_AVERAGE_POLARIZABILITY>
15.798819149867942

> <JCHEM_BIOAVAILABILITY>
1

> <JCHEM_DONOR_COUNT>
3

> <JCHEM_FORMAL_CHARGE>
0

> <JCHEM_GHOSE_FILTER>
0

> <JCHEM_IUPAC>
2,5-diamino-2-(difluoromethyl)pentanoic acid

> <ALOGPS_LOGP>
-2.05

> <JCHEM_LOGP>
-2.908437200546133

> <ALOGPS_LOGS>
-0.56

> <JCHEM_MDDR_LIKE_RULE>
0

> <JCHEM_NUMBER_OF_RINGS>
0

> <JCHEM_PHYSIOLOGICAL_CHARGE>
1

> <JCHEM_PKA_STRONGEST_ACIDIC>
2.190272271177595

> <JCHEM_PKA_STRONGEST_BASIC>
10.204405323783407

> <JCHEM_POLAR_SURFACE_AREA>
89.34

> <JCHEM_REFRACTIVITY>
37.7336

> <JCHEM_ROTATABLE_BOND_COUNT>
5

> <JCHEM_RULE_OF_FIVE>
1

> <ALOGPS_SOLUBILITY>
5.00e+01 g/l

> <JCHEM_TRADITIONAL_IUPAC>
vaniqa

> <JCHEM_VEBER_RULE>
0

> <DRUGBANK_ID>
DB06243

> <DRUG_GROUPS>
approved; withdrawn

> <GENERIC_NAME>
Eflornithine

> <SYNONYMS>
(RS)-2,5-diamino-2-(difluoromethyl)pentanoic acid; 2-(difluoromethyl)ornithine; alpha-difluoromethylornithine; DFMO; Eflornithine; α-difluoromethylornithine

> <PRODUCTS>
Vaniqa

> <SALTS>
Eflornithine hydrochloride

$$$$
216235
  Mrv0541 02241213002D          

 29 32  0  0  0  0            999 V2000
    3.4449   -2.3243    0.0000 Cl  0  0  0  0  0  0  0  0  0  0  0  0
    4.1711    0.1898    0.0000 S   0  0  0  0  0  0  0  0  0  0  0  0
    5.0101    2.1528    0.0000 S   0  0  0  0  0  0  0  0  0  0  0  0
    8.7349   -0.0663    0.0000 O   0  0  0  0  0  0  0  0  0  0  0  0
    8.7349   -1.3942    0.0000 O   0  0  0  0  0  0  0  0  0  0  0  0
    6.5253    1.3322    0.0000 O   0  0  0  0  0  0  0  0  0  0  0  0
    3.3641    0.3613    0.0000 O   0  0  0  0  0  0  0  0  0  0  0  0
    4.9781    0.0182    0.0000 O   0  0  0  0  0  0  0  0  0  0  0  0
    2.5475   -0.3873    0.0000 O   0  0  0  0  0  0  0  0  0  0  0  0
    3.9996   -0.6173    0.0000 N   0  0  0  0  0  0  0  0  0  0  0  0
    1.8801   -0.8722    0.0000 N   0  0  0  0  0  0  0  0  0  0  0  0
    6.5253   -0.3178    0.0000 C   0  0  0  0  0  0  0  0  0  0  0  0
    5.8108    0.0947    0.0000 C   0  0  0  0  0  0  0  0  0  0  0  0
    6.5253   -1.1428    0.0000 C   0  0  0  0  0  0  0  0  0  0  0  0
    4.3426    0.9967    0.0000 C   0  0  0  0  0  0  0  0  0  0  0  0
    5.0963    1.3322    0.0000 C   0  0  0  0  0  0  0  0  0  0  0  0
    7.2398    0.0947    0.0000 C   0  0  0  0  0  0  0  0  0  0  0  0
    5.8108    0.9197    0.0000 C   0  0  0  0  0  0  0  0  0  0  0  0
    7.9542   -0.3178    0.0000 C   0  0  0  0  0  0  0  0  0  0  0  0
    7.9542   -1.1428    0.0000 C   0  0  0  0  0  0  0  0  0  0  0  0
    7.2398   -1.5553    0.0000 C   0  0  0  0  0  0  0  0  0  0  0  0
    5.8108   -1.5553    0.0000 C   0  0  0  0  0  0  0  0  0  0  0  0
    3.7906    1.6098    0.0000 C   0  0  0  0  0  0  0  0  0  0  0  0
    9.2164   -0.7303    0.0000 C   0  0  0  0  0  0  0  0  0  0  0  0
    4.2031    2.3243    0.0000 C   0  0  0  0  0  0  0  0  0  0  0  0
    3.2149   -0.8722    0.0000 C   0  0  0  0  0  0  0  0  0  0  0  0
    2.9600   -1.6569    0.0000 C   0  0  0  0  0  0  0  0  0  0  0  0
    2.1350   -1.6569    0.0000 C   0  0  0  0  0  0  0  0  0  0  0  0
    1.6500   -2.3243    0.0000 C   0  0  0  0  0  0  0  0  0  0  0  0
  1 27  1  0  0  0  0
  2  7  2  0  0  0  0
  2  8  2  0  0  0  0
  2 10  1  0  0  0  0
  2 15  1  0  0  0  0
  3 16  1  0  0  0  0
  3 25  1  0  0  0  0
  4 19  1  0  0  0  0
  4 24  1  0  0  0  0
  5 20  1  0  0  0  0
  5 24  1  0  0  0  0
  6 18  2  0  0  0  0
  9 11  1  0  0  0  0
  9 26  1  0  0  0  0
 10 26  1  0  0  0  0
 11 28  2  0  0  0  0
 12 13  1  0  0  0  0
 12 14  1  0  0  0  0
 12 17  2  0  0  0  0
 13 18  1  0  0  0  0
 14 21  2  0  0  0  0
 14 22  1  0  0  0  0
 15 16  2  0  0  0  0
 15 23  1  0  0  0  0
 16 18  1  0  0  0  0
 17 19  1  0  0  0  0
 19 20  2  0  0  0  0
 20 21  1  0  0  0  0
 23 25  2  0  0  0  0
 26 27  2  0  0  0  0
 27 28  1  0  0  0  0
 28 29  1  0  0  0  0
M  END
> <DATABASE_ID>
DB06268

> <DATABASE_NAME>
drugbank

> <SMILES>
CC1=NOC(NS(=O)(=O)C2=C(SC=C2)C(=O)CC2=CC3=C(OCO3)C=C2C)=C1Cl

> <INCHI_IDENTIFIER>
InChI=1S/C18H15ClN2O6S2/c1-9-5-13-14(26-8-25-13)7-11(9)6-12(22)17-15(3-4-28-17)29(23,24)21-18-16(19)10(2)20-27-18/h3-5,7,21H,6,8H2,1-2H3

> <INCHI_KEY>
PHWXUGHIIBDVKD-UHFFFAOYSA-N

> <FORMULA>
C18H15ClN2O6S2

> <MOLECULAR_WEIGHT>
454.905

> <EXACT_MASS>
454.006005309

> <JCHEM_ACCEPTOR_COUNT>
6

> <JCHEM_AVERAGE_POLARIZABILITY>
43.11652205319554

> <JCHEM_BIOAVAILABILITY>
1

> <JCHEM_DONOR_COUNT>
1

> <JCHEM_FORMAL_CHARGE>
0

> <JCHEM_GHOSE_FILTER>
1

> <JCHEM_IUPAC>
N-(4-chloro-3-methyl-1,2-oxazol-5-yl)-2-[2-(6-methyl-2H-1,3-benzodioxol-5-yl)acetyl]thiophene-3-sulfonamide

> <ALOGPS_LOGP>
3.35

> <JCHEM_LOGP>
3.091685922

> <ALOGPS_LOGS>
-4.40

> <JCHEM_MDDR_LIKE_RULE>
0

> <JCHEM_NUMBER_OF_RINGS>
4

> <JCHEM_PHYSIOLOGICAL_CHARGE>
-1

> <JCHEM_PKA>
11.420143849604173

> <JCHEM_PKA_STRONGEST_ACIDIC>
6.8883305321764725

> <JCHEM_PKA_STRONGEST_BASIC>
0.7450561162550599

> <JCHEM_POLAR_SURFACE_AREA>
107.73

> <JCHEM_REFRACTIVITY>
105.80450000000003

> <JCHEM_ROTATABLE_BOND_COUNT>
5

> <JCHEM_RULE_OF_FIVE>
1

> <ALOGPS_SOLUBILITY>
1.81e-02 g/l

> <JCHEM_TRADITIONAL_IUPAC>
thelin

> <JCHEM_VEBER_RULE>
0

> <DRUGBANK_ID>
DB06268

> <DRUG_GROUPS>
approved; investigational; withdrawn

> <GENERIC_NAME>
Sitaxentan

> <SYNONYMS>
Sitaxentan; Sitaxsentan

> <PRODUCTS>
Thelin

> <SALTS>
Sitaxentan sodium

$$$$

  Mrv1652306131722022D          

 10  9  0  0  0  0            999 V2000
    0.1105   -1.2375    0.0000 C   0  0  0  0  0  0  0  0  0  0  0  0
    0.1105   -2.0625    0.0000 C   0  0  0  0  0  0  0  0  0  0  0  0
    0.1105   -2.8875    0.0000 Cl  0  0  0  0  0  0  0  0  0  0  0  0
    0.9355   -2.0625    0.0000 Cl  0  0  0  0  0  0  0  0  0  0  0  0
   -0.7145   -2.0625    0.0000 Cl  0  0  0  0  0  0  0  0  0  0  0  0
    0.8250   -0.8250    0.0000 O   0  0  0  0  0  0  0  0  0  0  0  0
    0.8250    0.0000    0.0000 P   0  0  0  0  0  0  0  0  0  0  0  0
    0.8250    0.8250    0.0000 O   0  0  0  0  0  0  0  0  0  0  0  0
    1.6500   -0.0000    0.0000 O   0  0  0  0  0  0  0  0  0  0  0  0
    0.0000    0.0000    0.0000 O   0  0  0  0  0  0  0  0  0  0  0  0
  1  2  1  0  0  0  0
  2  3  1  0  0  0  0
  2  4  1  0  0  0  0
  2  5  1  0  0  0  0
  1  6  1  0  0  0  0
  6  7  1  0  0  0  0
  7  8  2  0  0  0  0
  7  9  1  0  0  0  0
  7 10  1  0  0  0  0
M  END
> <DATABASE_ID>
DB06753

> <DATABASE_NAME>
drugbank

> <SMILES>
OP(O)(=O)OCC(Cl)(Cl)Cl

> <INCHI_IDENTIFIER>
InChI=1S/C2H4Cl3O4P/c3-2(4,5)1-9-10(6,7)8/h1H2,(H2,6,7,8)

> <INCHI_KEY>
YYQRGCZGSFRBAM-UHFFFAOYSA-N

> <FORMULA>
C2H4Cl3O4P

> <MOLECULAR_WEIGHT>
229.37

> <EXACT_MASS>
227.8912787

> <JCHEM_ACCEPTOR_COUNT>
3

> <JCHEM_ATOM_COUNT>
14

> <JCHEM_AVERAGE_POLARIZABILITY>
15.743686112014752

> <JCHEM_BIOAVAILABILITY>
1

> <JCHEM_DONOR_COUNT>
2

> <JCHEM_FORMAL_CHARGE>
0

> <JCHEM_GHOSE_FILTER>
0

> <JCHEM_IUPAC>
(2,2,2-trichloroethoxy)phosphonic acid

> <ALOGPS_LOGP>
0.80

> <JCHEM_LOGP>
0.933012924

> <ALOGPS_LOGS>
-1.47

> <JCHEM_MDDR_LIKE_RULE>
0

> <JCHEM_NUMBER_OF_RINGS>
0

> <JCHEM_PHYSIOLOGICAL_CHARGE>
-2

> <JCHEM_PKA>
6.195485651641024

> <JCHEM_PKA_STRONGEST_ACIDIC>
1.1681844177870495

> <JCHEM_POLAR_SURFACE_AREA>
66.76

> <JCHEM_REFRACTIVITY>
39.088699999999996

> <JCHEM_ROTATABLE_BOND_COUNT>
3

> <JCHEM_RULE_OF_FIVE>
1

> <ALOGPS_SOLUBILITY>
7.86e+00 g/l

> <JCHEM_TRADITIONAL_IUPAC>
triclofos

> <JCHEM_VEBER_RULE>
0

> <DRUGBANK_ID>
DB06753

> <DRUG_GROUPS>
approved; withdrawn

> <GENERIC_NAME>
Triclofos

> <SYNONYMS>
Triclofos

> <SALTS>
Triclofos sodium

$$$$
 
  Mrv1572002131601182D          

 33 37  0  0  1  0            999 V2000
   20.9613  -28.7386    0.0000 C   0  0  0  0  0  0  0  0  0  0  0  0
   20.9613  -29.5636    0.0000 C   0  0  0  0  0  0  0  0  0  0  0  0
   21.6626  -29.9761    0.0000 C   0  0  0  0  0  0  0  0  0  0  0  0
   22.3638  -29.5636    0.0000 C   0  0  0  0  0  0  0  0  0  0  0  0
   22.3638  -28.7386    0.0000 C   0  0  2  0  0  0  0  0  0  0  0  0
   21.6626  -28.3673    0.0000 C   0  0  0  0  0  0  0  0  0  0  0  0
   23.0651  -29.9761    0.0000 C   0  0  0  0  0  0  0  0  0  0  0  0
   23.8076  -29.5636    0.0000 C   0  0  0  0  0  0  0  0  0  0  0  0
   23.8076  -28.7386    0.0000 C   0  0  2  0  0  0  0  0  0  0  0  0
   23.0651  -28.3673    0.0000 C   0  0  2  0  0  0  0  0  0  0  0  0
   24.5088  -28.3673    0.0000 C   0  0  1  0  0  0  0  0  0  0  0  0
   24.5088  -27.5423    0.0000 C   0  0  1  0  0  0  0  0  0  0  0  0
   23.8076  -27.1298    0.0000 C   0  0  0  0  0  0  0  0  0  0  0  0
   23.0651  -27.5423    0.0000 C   0  0  2  0  0  0  0  0  0  0  0  0
   22.3638  -27.9548    0.0000 C   0  0  0  0  0  0  0  0  0  0  0  0
   23.8076  -27.9548    0.0000 H   0  0  0  0  0  0  0  0  0  0  0  0
   22.3638  -27.1298    0.0000 O   0  0  0  0  0  0  0  0  0  0  0  0
   24.5088  -26.7173    0.0000 C   0  0  0  0  0  0  0  0  0  0  0  0
   23.0651  -29.1511    0.0000 F   0  0  0  0  0  0  0  0  0  0  0  0
   24.5088  -29.1511    0.0000 H   0  0  0  0  0  0  0  0  0  0  0  0
   20.2601  -29.9761    0.0000 O   0  0  0  0  0  0  0  0  0  0  0  0
   25.9378  -28.3673    0.0000 C   0  0  0  0  0  0  0  0  0  0  0  0
   25.9378  -27.5423    0.0000 C   0  0  2  0  0  0  0  0  0  0  0  0
   25.2233  -27.1298    0.0000 C   0  0  2  0  0  0  0  0  0  0  0  0
   25.2233  -26.2225    0.0000 C   0  0  0  0  0  0  0  0  0  0  0  0
   24.4989  -25.8041    0.0000 C   0  0  0  0  0  0  0  0  0  0  0  0
   25.9278  -25.8156    0.0000 O   0  0  0  0  0  0  0  0  0  0  0  0
   23.7894  -26.2137    0.0000 Cl  0  0  0  0  0  0  0  0  0  0  0  0
   25.9277  -26.7230    0.0000 O   0  0  0  0  0  0  0  0  0  0  0  0
   26.7189  -27.2367    0.0000 O   0  0  0  0  0  0  0  0  0  0  0  0
   26.7527  -26.7230    0.0000 C   0  0  0  0  0  0  0  0  0  0  0  0
   26.7527  -25.8980    0.0000 C   0  0  0  0  0  0  0  0  0  0  0  0
   27.5777  -26.7230    0.0000 C   0  0  0  0  0  0  0  0  0  0  0  0
  1  2  1  0  0  0  0
  2  3  1  0  0  0  0
  3  4  2  0  0  0  0
  4  5  1  0  0  0  0
  5  6  1  0  0  0  0
  1  6  1  0  0  0  0
  4  7  1  0  0  0  0
  7  8  1  0  0  0  0
  8  9  1  0  0  0  0
  9 10  1  0  0  0  0
  5 10  1  0  0  0  0
  9 11  1  0  0  0  0
 11 12  1  0  0  0  0
 12 13  1  0  0  0  0
 13 14  1  0  0  0  0
 10 14  1  0  0  0  0
  5 15  1  1  0  0  0
  9 16  1  1  0  0  0
 14 17  1  1  0  0  0
 12 18  1  1  0  0  0
 10 19  1  6  0  0  0
 11 20  1  6  0  0  0
  2 21  2  0  0  0  0
 11 22  1  0  0  0  0
 22 23  1  0  0  0  0
 23 24  1  0  0  0  0
 12 24  1  0  0  0  0
 24 25  1  1  0  0  0
 25 26  1  0  0  0  0
 25 27  2  0  0  0  0
 26 28  1  0  0  0  0
 24 29  1  6  0  0  0
 23 30  1  6  0  0  0
 29 31  1  0  0  0  0
 31 30  1  0  0  0  0
 31 32  1  0  0  0  0
 31 33  1  0  0  0  0
M  END
> <DATABASE_ID>
DB06786

> <DATABASE_NAME>
drugbank

> <SMILES>
[H][C@@]12C[C@H]3OC(C)(C)O[C@@]3(C(=O)CCl)[C@@]1(C)C[C@H](O)[C@@]1(F)[C@@]2([H])CCC2=CC(=O)CC[C@]12C

> <INCHI_IDENTIFIER>
InChI=1S/C24H32ClFO5/c1-20(2)30-19-10-16-15-6-5-13-9-14(27)7-8-21(13,3)23(15,26)17(28)11-22(16,4)24(19,31-20)18(29)12-25/h9,15-17,19,28H,5-8,10-12H2,1-4H3/t15-,16-,17-,19+,21-,22-,23-,24+/m0/s1

> <INCHI_KEY>
MUQNGPZZQDCDFT-JNQJZLCISA-N

> <FORMULA>
C24H32ClFO5

> <MOLECULAR_WEIGHT>
454.96

> <EXACT_MASS>
454.19223

> <JCHEM_ACCEPTOR_COUNT>
5

> <JCHEM_ATOM_COUNT>
63

> <JCHEM_AVERAGE_POLARIZABILITY>
46.60725286381555

> <JCHEM_BIOAVAILABILITY>
1

> <JCHEM_DONOR_COUNT>
1

> <JCHEM_FORMAL_CHARGE>
0

> <JCHEM_GHOSE_FILTER>
1

> <JCHEM_IUPAC>
(1S,2S,4R,8S,9S,11S,12R,13S)-8-(2-chloroacetyl)-12-fluoro-11-hydroxy-6,6,9,13-tetramethyl-5,7-dioxapentacyclo[10.8.0.0²,⁹.0⁴,⁸.0¹³,¹⁸]icos-17-en-16-one

> <ALOGPS_LOGP>
3.31

> <JCHEM_LOGP>
3.300886228333331

> <ALOGPS_LOGS>
-4.61

> <JCHEM_MDDR_LIKE_RULE>
0

> <JCHEM_NUMBER_OF_RINGS>
5

> <JCHEM_PHYSIOLOGICAL_CHARGE>
0

> <JCHEM_PKA>
15.037330728878644

> <JCHEM_PKA_STRONGEST_ACIDIC>
13.632762911940176

> <JCHEM_PKA_STRONGEST_BASIC>
-3.3888281303583305

> <JCHEM_POLAR_SURFACE_AREA>
72.83

> <JCHEM_REFRACTIVITY>
113.54749999999999

> <JCHEM_ROTATABLE_BOND_COUNT>
2

> <JCHEM_RULE_OF_FIVE>
1

> <ALOGPS_SOLUBILITY>
1.12e-02 g/l

> <JCHEM_TRADITIONAL_IUPAC>
halog

> <JCHEM_VEBER_RULE>
0

> <DRUGBANK_ID>
DB06786

> <DRUG_GROUPS>
approved; investigational; withdrawn

> <GENERIC_NAME>
Halcinonide

> <SYNONYMS>
(4aS,4bR,5S,6aS,6bS,9aR,10aS,10bS)-6b-(chloroacetyl)-4b-fluoro-5-hydroxy-4a,6a,8,8-tetramethyl-3,4,4a,4b,5,6,6a,6b,9a,10,10a,10b,11,12-tetradecahydro-2H-naphtho[2',1':4,5]indeno[1,2-d][1,3]dioxol-2-one; Halcinonid; Halcinonida; Halcinonide; Halcinonidum

> <PRODUCTS>
Halcinonide; Halog; Halog Cream 0.1%; Halog Liq 0.1%; Halog Ont 0.1%; Halog-E

> <INTERNATIONAL_BRANDS>
Adcortin; Berodan; Betacorton; Confumin; Cortilate; Ha Le Te; Halciderm; Halcinonide-Pacific Pharm; Sawastin

$$$$

  Mrv1572004051602202D          

 26 27  0  0  0  0            999 V2000
    2.4750    2.0476    0.0000 C   0  0  0  0  0  0  0  0  0  0  0  0
   -0.4987   -0.9162    0.0000 C   0  0  0  0  0  0  0  0  0  0  0  0
   -2.4750   -0.8101    0.0000 C   0  0  0  0  0  0  0  0  0  0  0  0
   -1.2375   -1.5246    0.0000 C   0  0  0  0  0  0  0  0  0  0  0  0
    1.6500    2.0476    0.0000 C   0  0  0  0  0  0  0  0  0  0  0  0
    0.7144   -2.2687    0.0000 C   0  0  0  0  0  0  0  0  0  0  0  0
   -2.1434    1.8562    0.0000 C   0  0  0  0  0  0  0  0  0  0  0  0
    1.4289   -1.8562    0.0000 C   0  0  0  0  0  0  0  0  0  0  0  0
    0.0000   -1.8562    0.0000 C   0  0  0  0  0  0  0  0  0  0  0  0
   -2.1434    1.0312    0.0000 C   0  0  0  0  0  0  0  0  0  0  0  0
   -1.4289    2.2687    0.0000 C   0  0  0  0  0  0  0  0  0  0  0  0
    1.4289   -1.0312    0.0000 C   0  0  0  0  0  0  0  0  0  0  0  0
    0.0000   -1.0312    0.0000 C   0  0  0  0  0  0  0  0  0  0  0  0
   -1.4289    0.6187    0.0000 C   0  0  0  0  0  0  0  0  0  0  0  0
   -0.7144    1.8562    0.0000 C   0  0  0  0  0  0  0  0  0  0  0  0
    0.7144    0.2062    0.0000 C   0  0  0  0  0  0  0  0  0  0  0  0
   -1.2375   -0.0957    0.0000 C   0  0  0  0  0  0  0  0  0  0  0  0
   -0.4125   -0.0957    0.0000 C   0  0  1  0  0  0  0  0  0  0  0  0
    0.7144   -0.6187    0.0000 C   0  0  0  0  0  0  0  0  0  0  0  0
   -0.7144    1.0312    0.0000 C   0  0  0  0  0  0  0  0  0  0  0  0
    1.2375    1.3332    0.0000 C   0  0  0  0  0  0  0  0  0  0  0  0
    0.0000    0.6187    0.0000 C   0  0  1  0  0  0  0  0  0  0  0  0
   -1.6500   -0.8101    0.0000 N   0  0  0  0  0  0  0  0  0  0  0  0
    1.6500    0.6187    0.0000 O   0  0  0  0  0  0  0  0  0  0  0  0
    0.4125    1.3332    0.0000 O   0  0  0  0  0  0  0  0  0  0  0  0
    0.3721   -0.3506    0.0000 H   0  0  0  0  0  0  0  0  0  0  0  0
  5  1  1  0  0  0  0
  8  6  2  0  0  0  0
  9  6  1  0  0  0  0
 10  7  2  0  0  0  0
 11  7  1  0  0  0  0
 12  8  1  0  0  0  0
 13  9  2  0  0  0  0
 14 10  1  0  0  0  0
 15 11  2  0  0  0  0
 18  2  1  1  0  0  0
 18 17  1  0  0  0  0
 19 12  2  0  0  0  0
 19 13  1  0  0  0  0
 19 16  1  0  0  0  0
 20 14  2  0  0  0  0
 20 15  1  0  0  0  0
 21  5  1  0  0  0  0
 22 16  1  0  0  0  0
 22 18  1  0  0  0  0
 22 20  1  1  0  0  0
 23  3  1  0  0  0  0
 23  4  1  0  0  0  0
 23 17  1  0  0  0  0
 24 21  2  0  0  0  0
 25 21  1  0  0  0  0
 22 25  1  6  0  0  0
 18 26  1  6  0  0  0
M  END
> <DATABASE_ID>
DB06793

> <DATABASE_NAME>
drugbank

> <SMILES>
[H][C@](C)(CN(C)C)[C@@](CC1=CC=CC=C1)(OC(=O)CC)C1=CC=CC=C1

> <INCHI_IDENTIFIER>
InChI=1S/C22H29NO2/c1-5-21(24)25-22(18(2)17-23(3)4,20-14-10-7-11-15-20)16-19-12-8-6-9-13-19/h6-15,18H,5,16-17H2,1-4H3/t18-,22+/m0/s1

> <INCHI_KEY>
XLMALTXPSGQGBX-PGRDOPGGSA-N

> <FORMULA>
C22H29NO2

> <MOLECULAR_WEIGHT>
339.479

> <EXACT_MASS>
339.219829178

> <JCHEM_ACCEPTOR_COUNT>
2

> <JCHEM_ATOM_COUNT>
54

> <JCHEM_AVERAGE_POLARIZABILITY>
38.91944115637516

> <JCHEM_BIOAVAILABILITY>
1

> <JCHEM_DONOR_COUNT>
0

> <JCHEM_FORMAL_CHARGE>
0

> <JCHEM_GHOSE_FILTER>
1

> <JCHEM_IUPAC>
(2R,3S)-4-(dimethylamino)-3-methyl-1,2-diphenylbutan-2-yl propanoate

> <ALOGPS_LOGP>
4.06

> <JCHEM_LOGP>
4.902155232666666

> <ALOGPS_LOGS>
-4.91

> <JCHEM_MDDR_LIKE_RULE>
0

> <JCHEM_NUMBER_OF_RINGS>
2

> <JCHEM_PHYSIOLOGICAL_CHARGE>
1

> <JCHEM_PKA_STRONGEST_BASIC>
9.517055044851146

> <JCHEM_POLAR_SURFACE_AREA>
29.540000000000003

> <JCHEM_REFRACTIVITY>
102.8806

> <JCHEM_ROTATABLE_BOND_COUNT>
9

> <JCHEM_RULE_OF_FIVE>
1

> <ALOGPS_SOLUBILITY>
4.19e-03 g/l

> <JCHEM_TRADITIONAL_IUPAC>
levopropoxyphene

> <JCHEM_VEBER_RULE>
1

> <DRUGBANK_ID>
DB06793

> <DRUG_GROUPS>
withdrawn

> <GENERIC_NAME>
Levopropoxyphene

> <SYNONYMS>
(-)-Propoxyphene; (l)-Propoxyphene; levopropoxifeno; Levopropoxyphene

> <SALTS>
Levopropoxyphene napsylate anhydrous

$$$$

  Mrv1572004031620382D          

 43 43  0  0  0  0            999 V2000
    0.4953    4.2330    0.0000 C   0  0  0  0  0  0  0  0  0  0  0  0
   -0.0990   -4.1186    0.0000 C   0  0  0  0  0  0  0  0  0  0  0  0
    0.2972    0.4576    0.0000 C   0  0  0  0  0  0  0  0  0  0  0  0
    0.0990   -0.3432    0.0000 C   0  0  0  0  0  0  0  0  0  0  0  0
   -0.0990    1.8305    0.0000 C   0  0  0  0  0  0  0  0  0  0  0  0
    0.4953   -1.7161    0.0000 C   0  0  0  0  0  0  0  0  0  0  0  0
    1.2880    1.4872    0.0000 C   0  0  0  0  0  0  0  0  0  0  0  0
   -0.8917   -1.3728    0.0000 C   0  0  0  0  0  0  0  0  0  0  0  0
    1.6843    0.1144    0.0000 C   0  0  0  0  0  0  0  0  0  0  0  0
   -1.2880    0.0000    0.0000 C   0  0  0  0  0  0  0  0  0  0  0  0
   -1.4861    2.1737    0.0000 C   0  0  0  0  0  0  0  0  0  0  0  0
    1.8825   -2.0593    0.0000 C   0  0  0  0  0  0  0  0  0  0  0  0
    0.2972    3.4322    0.0000 C   0  0  0  0  0  0  0  0  0  0  0  0
    0.0990   -3.3178    0.0000 C   0  0  0  0  0  0  0  0  0  0  0  0
    0.6935    2.0593    0.0000 C   0  0  0  0  0  0  0  0  0  0  0  0
   -0.2972   -1.9449    0.0000 C   0  0  0  0  0  0  0  0  0  0  0  0
   -0.6935    2.4025    0.0000 C   0  0  0  0  0  0  0  0  0  0  0  0
    1.0898   -2.2881    0.0000 C   0  0  0  0  0  0  0  0  0  0  0  0
    2.4769    0.3432    0.0000 C   0  0  0  0  0  0  0  0  0  0  0  0
   -2.0806   -0.2288    0.0000 C   0  0  0  0  0  0  0  0  0  0  0  0
    0.8917    2.8601    0.0000 C   0  0  0  0  0  0  0  0  0  0  0  0
   -0.4953   -2.7457    0.0000 C   0  0  0  0  0  0  0  0  0  0  0  0
   -0.4953    3.2033    0.0000 N   0  0  0  0  0  0  0  0  0  0  0  0
    0.8917   -3.0889    0.0000 N   0  0  0  0  0  0  0  0  0  0  0  0
    1.0898    0.6864    0.0000 N   0  0  0  0  0  0  0  0  0  0  0  0
   -0.6935   -0.5720    0.0000 N   0  0  0  0  0  0  0  0  0  0  0  0
    2.6751    1.1440    0.0000 O   0  0  0  0  0  0  0  0  0  0  0  0
    3.0714   -0.2288    0.0000 O   0  5  0  0  0  0  0  0  0  0  0  0
   -2.2788   -1.0296    0.0000 O   0  0  0  0  0  0  0  0  0  0  0  0
   -2.6751    0.3432    0.0000 O   0  5  0  0  0  0  0  0  0  0  0  0
    1.6843    3.0889    0.0000 O   0  0  0  0  0  0  0  0  0  0  0  0
   -1.2880   -2.9745    0.0000 O   0  0  0  0  0  0  0  0  0  0  0  0
   -3.6659    2.2881    0.0000 O   0  0  0  0  0  0  0  0  0  0  0  0
   -2.6444    1.7243    0.0000 O   0  0  0  0  0  0  0  0  0  0  0  0
   -3.1021    3.3095    0.0000 O   0  0  0  0  0  0  0  0  0  0  0  0
    3.0796   -3.6303    0.0000 O   0  0  0  0  0  0  0  0  0  0  0  0
    2.0806   -4.2330    0.0000 O   0  0  0  0  0  0  0  0  0  0  0  0
    1.4779   -3.2340    0.0000 O   0  0  0  0  0  0  0  0  0  0  0  0
   -2.0806    2.7457    0.0000 O   0  0  0  0  0  0  0  0  0  0  0  0
    2.4769   -2.6313    0.0000 O   0  0  0  0  0  0  0  0  0  0  0  0
   -2.8732    2.5169    0.0000 P   0  0  0  0  0  0  0  0  0  0  0  0
    2.2788   -3.4322    0.0000 P   0  0  0  0  0  0  0  0  0  0  0  0
    3.6659   -0.8008    0.0000 Mn  0  2  0  0  0  0  0  0  0  0  0  0
  4  3  1  0  0  0  0
 13  1  1  0  0  0  0
 14  2  1  0  0  0  0
 15  5  2  0  0  0  0
 15  7  1  0  0  0  0
 16  6  2  0  0  0  0
 16  8  1  0  0  0  0
 17  5  1  0  0  0  0
 17 11  1  0  0  0  0
 18  6  1  0  0  0  0
 18 12  1  0  0  0  0
 19  9  1  0  0  0  0
 20 10  1  0  0  0  0
 21 13  2  0  0  0  0
 21 15  1  0  0  0  0
 22 14  2  0  0  0  0
 22 16  1  0  0  0  0
 23 13  1  0  0  0  0
 23 17  2  0  0  0  0
 24 14  1  0  0  0  0
 24 18  2  0  0  0  0
 25  3  1  0  0  0  0
 25  7  1  0  0  0  0
 25  9  1  0  0  0  0
 26  4  1  0  0  0  0
 26  8  1  0  0  0  0
 26 10  1  0  0  0  0
 27 19  2  0  0  0  0
 28 19  1  0  0  0  0
 29 20  2  0  0  0  0
 30 20  1  0  0  0  0
 31 21  1  0  0  0  0
 32 22  1  0  0  0  0
 39 11  1  0  0  0  0
 40 12  1  0  0  0  0
 41 33  1  0  0  0  0
 41 34  1  0  0  0  0
 41 35  2  0  0  0  0
 41 39  1  0  0  0  0
 42 36  1  0  0  0  0
 42 37  1  0  0  0  0
 42 38  2  0  0  0  0
 42 40  1  0  0  0  0
M  CHG  3  28  -1  30  -1  43   2
M  END
> <DATABASE_ID>
DB06796

> <DATABASE_NAME>
drugbank

> <SMILES>
[Mn++].CC1=C(O)C(CN(CCN(CC([O-])=O)CC2=CC(COP(O)(O)=O)=NC(C)=C2O)CC([O-])=O)=CC(COP(O)(O)=O)=N1

> <INCHI_IDENTIFIER>
InChI=1S/C22H32N4O14P2.Mn/c1-13-21(31)15(5-17(23-13)11-39-41(33,34)35)7-25(9-19(27)28)3-4-26(10-20(29)30)8-16-6-18(12-40-42(36,37)38)24-14(2)22(16)32;/h5-6,31-32H,3-4,7-12H2,1-2H3,(H,27,28)(H,29,30)(H2,33,34,35)(H2,36,37,38);/q;+2/p-2

> <INCHI_KEY>
CXFKOLCMCRBYPL-UHFFFAOYSA-L

> <FORMULA>
C22H30MnN4O14P2

> <MOLECULAR_WEIGHT>
691.382

> <EXACT_MASS>
691.06142

> <JCHEM_ACCEPTOR_COUNT>
16

> <JCHEM_ATOM_COUNT>
73

> <JCHEM_AVERAGE_POLARIZABILITY>
56.97092072751037

> <JCHEM_BIOAVAILABILITY>
0

> <JCHEM_DONOR_COUNT>
6

> <JCHEM_FORMAL_CHARGE>
0

> <JCHEM_GHOSE_FILTER>
0

> <JCHEM_IUPAC>
manganese(2+) ion 2-({2-[(carboxylatomethyl)({3-hydroxy-2-methyl-6-[(phosphonooxy)methyl]pyridin-4-yl}methyl)amino]ethyl}({3-hydroxy-2-methyl-6-[(phosphonooxy)methyl]pyridin-4-yl}methyl)amino)acetate

> <ALOGPS_LOGP>
0.79

> <JCHEM_LOGP>
-1.7848961366666662

> <ALOGPS_LOGS>
-2.85

> <JCHEM_MDDR_LIKE_RULE>
0

> <JCHEM_NUMBER_OF_RINGS>
2

> <JCHEM_PHYSIOLOGICAL_CHARGE>
-4

> <JCHEM_PKA>
1.9665881904099587

> <JCHEM_PKA_STRONGEST_ACIDIC>
1.3768500519412896

> <JCHEM_PKA_STRONGEST_BASIC>
-6.37583692849238

> <JCHEM_POLAR_SURFACE_AREA>
286.5

> <JCHEM_REFRACTIVITY>
164.24000000000004

> <JCHEM_ROTATABLE_BOND_COUNT>
17

> <JCHEM_RULE_OF_FIVE>
0

> <ALOGPS_SOLUBILITY>
1.06e+00 g/l

> <JCHEM_TRADITIONAL_IUPAC>
manganese(2+) ion 2-({2-[(carboxylatomethyl)({3-hydroxy-2-methyl-6-[(phosphonooxy)methyl]pyridin-4-yl}methyl)amino]ethyl}({3-hydroxy-2-methyl-6-[(phosphonooxy)methyl]pyridin-4-yl}methyl)amino)acetate

> <JCHEM_VEBER_RULE>
0

> <DRUGBANK_ID>
DB06796

> <DRUG_GROUPS>
approved; investigational; withdrawn

> <GENERIC_NAME>
Mangafodipir

> <PRODUCTS>
Teslascan

> <SALTS>
Mangafodipir trisodium

$$$$

  Mrv1902 02261920252D          

 43 43  0  0  0  0            999 V2000
   -1.4289    0.2061    0.0000 C   0  0  0  0  0  0  0  0  0  0  0  0
   -2.1435   -0.2063    0.0000 C   0  0  0  0  0  0  0  0  0  0  0  0
   -2.1435   -1.0313    0.0000 C   0  0  0  0  0  0  0  0  0  0  0  0
   -1.4289   -1.4438    0.0000 C   0  0  0  0  0  0  0  0  0  0  0  0
   -0.7145   -1.0313    0.0000 C   0  0  0  0  0  0  0  0  0  0  0  0
   -2.8580   -1.4438    0.0000 C   0  0  0  0  0  0  0  0  0  0  0  0
   -0.7145   -0.2063    0.0000 C   0  0  0  0  0  0  0  0  0  0  0  0
    0.0000    0.2061    0.0000 O   0  0  0  0  0  0  0  0  0  0  0  0
    0.7144   -0.2063    0.0000 C   0  0  0  0  0  0  0  0  0  0  0  0
    1.4289    0.2061    0.0000 C   0  0  0  0  0  0  0  0  0  0  0  0
    2.1435   -0.2063    0.0000 O   0  0  0  0  0  0  0  0  0  0  0  0
    2.8580    0.2061    0.0000 C   0  0  0  0  0  0  0  0  0  0  0  0
    3.5724   -0.2063    0.0000 C   0  0  0  0  0  0  0  0  0  0  0  0
    4.2870    0.2061    0.0000 O   0  0  0  0  0  0  0  0  0  0  0  0
    5.0015   -0.2063    0.0000 C   0  0  0  0  0  0  0  0  0  0  0  0
    5.7159    0.2061    0.0000 C   0  0  0  0  0  0  0  0  0  0  0  0
    0.0000    1.0312    0.0000 C   0  0  0  0  0  0  0  0  0  0  0  0
    0.7144    1.4437    0.0000 C   0  0  0  0  0  0  0  0  0  0  0  0
    1.4289    1.0312    0.0000 O   0  0  0  0  0  0  0  0  0  0  0  0
    2.1435    1.4437    0.0000 C   0  0  0  0  0  0  0  0  0  0  0  0
    2.8580    1.0312    0.0000 C   0  0  0  0  0  0  0  0  0  0  0  0
    3.5724    1.4437    0.0000 O   0  0  0  0  0  0  0  0  0  0  0  0
    4.2870    1.0312    0.0000 C   0  0  0  0  0  0  0  0  0  0  0  0
    5.0015    1.4437    0.0000 C   0  0  0  0  0  0  0  0  0  0  0  0
    5.7159    1.0312    0.0000 O   0  0  0  0  0  0  0  0  0  0  0  0
   -0.7145    1.4437    0.0000 O   0  0  0  0  0  0  0  0  0  0  0  0
   -0.7145    2.2688    0.0000 C   0  0  0  0  0  0  0  0  0  0  0  0
    0.0000    2.6813    0.0000 C   0  0  0  0  0  0  0  0  0  0  0  0
    0.7144    2.2688    0.0000 O   0  0  0  0  0  0  0  0  0  0  0  0
    1.4289    2.6813    0.0000 C   0  0  0  0  0  0  0  0  0  0  0  0
    2.1435    2.2688    0.0000 C   0  0  0  0  0  0  0  0  0  0  0  0
    2.8580    2.6813    0.0000 O   0  0  0  0  0  0  0  0  0  0  0  0
    3.5724    2.2688    0.0000 C   0  0  0  0  0  0  0  0  0  0  0  0
    4.2870    2.6813    0.0000 C   0  0  0  0  0  0  0  0  0  0  0  0
    5.0015    2.2688    0.0000 O   0  0  0  0  0  0  0  0  0  0  0  0
   -4.2870   -1.4437    0.0000 C   0  0  0  0  0  0  0  0  0  0  0  0
   -4.2870   -2.2688    0.0000 C   0  0  0  0  0  0  0  0  0  0  0  0
   -5.0016   -1.0312    0.0000 C   0  0  0  0  0  0  0  0  0  0  0  0
   -5.0016   -2.6813    0.0000 C   0  0  0  0  0  0  0  0  0  0  0  0
   -5.7160   -1.4437    0.0000 C   0  0  0  0  0  0  0  0  0  0  0  0
   -5.7160   -2.2688    0.0000 C   0  0  0  0  0  0  0  0  0  0  0  0
   -3.5725   -1.0313    0.0000 C   0  0  0  0  0  0  0  0  0  0  0  0
   -3.5726   -2.6813    0.0000 C   0  0  0  0  0  0  0  0  0  0  0  0
  1  2  1  0  0  0  0
  1  7  2  0  0  0  0
  2  3  2  0  0  0  0
  3  4  1  0  0  0  0
  4  5  2  0  0  0  0
  5  7  1  0  0  0  0
  3  6  1  0  0  0  0
  7  8  1  0  0  0  0
  8  9  1  0  0  0  0
  9 10  1  0  0  0  0
 10 11  1  0  0  0  0
 11 12  1  0  0  0  0
 12 13  1  0  0  0  0
 13 14  1  0  0  0  0
 14 15  1  0  0  0  0
 15 16  1  0  0  0  0
 16 25  1  0  0  0  0
 17 18  1  0  0  0  0
 18 19  1  0  0  0  0
 19 20  1  0  0  0  0
 20 21  1  0  0  0  0
 21 22  1  0  0  0  0
 22 23  1  0  0  0  0
 23 24  1  0  0  0  0
 24 25  1  0  0  0  0
 17 26  1  0  0  0  0
 26 27  1  0  0  0  0
 27 28  1  0  0  0  0
 28 29  1  0  0  0  0
 29 30  1  0  0  0  0
 30 31  1  0  0  0  0
 31 32  1  0  0  0  0
 32 33  1  0  0  0  0
 33 34  1  0  0  0  0
 34 35  1  0  0  0  0
 38 36  1  0  0  0  0
 39 37  1  0  0  0  0
 40 38  1  0  0  0  0
 41 39  1  0  0  0  0
 41 40  1  0  0  0  0
 42 36  1  0  0  0  0
  6 42  1  0  0  0  0
 43 37  1  0  0  0  0
M  END
> <DATABASE_ID>
DB06804

> <DATABASE_NAME>
drugbank

> <SMILES>
CCCCCCCCCC1=CC=C(OCCOCCOCCOCCOCCOCCOCCOCCOCCO)C=C1

> <INCHI_IDENTIFIER>
InChI=1S/C33H60O10/c1-2-3-4-5-6-7-8-9-32-10-12-33(13-11-32)43-31-30-42-29-28-41-27-26-40-25-24-39-23-22-38-21-20-37-19-18-36-17-16-35-15-14-34/h10-13,34H,2-9,14-31H2,1H3

> <INCHI_KEY>
FBWNMEQMRUMQSO-UHFFFAOYSA-N

> <FORMULA>
C33H60O10

> <MOLECULAR_WEIGHT>
616.8235

> <EXACT_MASS>
616.41864814

> <JCHEM_ACCEPTOR_COUNT>
10

> <JCHEM_ATOM_COUNT>
103

> <JCHEM_AVERAGE_POLARIZABILITY>
77.06672959715837

> <JCHEM_BIOAVAILABILITY>
0

> <JCHEM_DONOR_COUNT>
1

> <JCHEM_FORMAL_CHARGE>
0

> <JCHEM_GHOSE_FILTER>
0

> <JCHEM_IUPAC>
26-(4-nonylphenoxy)-3,6,9,12,15,18,21,24-octaoxahexacosan-1-ol

> <ALOGPS_LOGP>
3.49

> <JCHEM_LOGP>
4.819639180999998

> <ALOGPS_LOGS>
-6.46

> <JCHEM_MDDR_LIKE_RULE>
0

> <JCHEM_NUMBER_OF_RINGS>
1

> <JCHEM_PHYSIOLOGICAL_CHARGE>
0

> <JCHEM_PKA_STRONGEST_ACIDIC>
15.121155523152114

> <JCHEM_PKA_STRONGEST_BASIC>
-2.7458065741732653

> <JCHEM_POLAR_SURFACE_AREA>
103.30000000000003

> <JCHEM_REFRACTIVITY>
169.01069999999999

> <JCHEM_ROTATABLE_BOND_COUNT>
35

> <JCHEM_RULE_OF_FIVE>
0

> <ALOGPS_SOLUBILITY>
2.14e-04 g/l

> <JCHEM_TRADITIONAL_IUPAC>
nonoxynol-9

> <JCHEM_VEBER_RULE>
0

> <DRUGBANK_ID>
DB06804

> <DRUG_GROUPS>
approved; withdrawn

> <GENERIC_NAME>
Nonoxynol-9

> <SYNONYMS>
26-(Nonylphenoxy)-3,6,9,12,15,18,21,24-octaoxahexacosan-1-ol; Nonaethylene glycol mono(nonylphenyl) ether; Nonaethylene glycol nonylphenyl ether; Nonoxynol 9; Nonylphenol octa(oxyethylene) ethanol; P-Nonylphenyl polyethylene glycol ether; PEG-9 nonyl phenyl ether; Polyoxyethylene (9) nonyl phenyl ether; Tergitol NP-9; Tergitol NP9

> <PRODUCTS>
Conceptrol Options; ContraSeed; Encare; Gynol II Extra Strength; Today Vaginal Contraceptive; Vcf Contraceptive; Vcf Contraceptive Pre-filled Applicators

> <INTERNATIONAL_BRANDS>
Advantage 24; Gynoll; Today; VCF

$$$$
 
  Mrv0541 02241214202D          

 76 83  0  0  1  0            999 V2000
   21.9292  -17.6589    0.0000 C   0  0  2  0  0  0  0  0  0  0  0  0
   21.2033  -17.2711    0.0000 O   0  0  0  0  0  0  0  0  0  0  0  0
   20.5028  -17.7070    0.0000 C   0  0  1  0  0  0  0  0  0  0  0  0
   20.4880  -18.5316    0.0000 C   0  0  2  0  0  0  0  0  0  0  0  0
   21.2560  -18.9193    0.0000 C   0  0  1  0  0  0  0  0  0  0  0  0
   21.9151  -18.4834    0.0000 C   0  0  0  0  0  0  0  0  0  0  0  0
   23.2854  -15.1345    0.0000 C   0  0  2  0  0  0  0  0  0  0  0  0
   22.5669  -14.7506    0.0000 O   0  0  0  0  0  0  0  0  0  0  0  0
   21.8664  -15.1864    0.0000 C   0  0  1  0  0  0  0  0  0  0  0  0
   21.8515  -16.0109    0.0000 C   0  0  1  0  0  0  0  0  0  0  0  0
   22.6119  -16.3948    0.0000 C   0  0  1  0  0  0  0  0  0  0  0  0
   23.2712  -15.9591    0.0000 C   0  0  0  0  0  0  0  0  0  0  0  0
   22.6391  -17.2172    0.0000 O   0  0  0  0  0  0  0  0  0  0  0  0
   24.6451  -12.6159    0.0000 C   0  0  2  0  0  0  0  0  0  0  0  0
   23.9162  -12.2152    0.0000 O   0  0  0  0  0  0  0  0  0  0  0  0
   23.2106  -12.6426    0.0000 C   0  0  1  0  0  0  0  0  0  0  0  0
   23.1867  -13.4674    0.0000 C   0  0  2  0  0  0  0  0  0  0  0  0
   23.9569  -13.8681    0.0000 C   0  0  1  0  0  0  0  0  0  0  0  0
   24.6625  -13.4407    0.0000 C   0  0  0  0  0  0  0  0  0  0  0  0
   18.1612  -11.8605    0.0000 C   0  0  2  0  0  0  0  0  0  0  0  0
   17.4517  -11.4509    0.0000 O   0  0  0  0  0  0  0  0  0  0  0  0
   16.7372  -11.8634    0.0000 C   0  0  1  0  0  0  0  0  0  0  0  0
   16.7372  -12.6884    0.0000 C   0  0  2  0  0  0  0  0  0  0  0  0
   17.4467  -13.0980    0.0000 C   0  0  1  0  0  0  0  0  0  0  0  0
   18.1612  -12.6855    0.0000 C   0  0  0  0  0  0  0  0  0  0  0  0
   18.1711   -9.3798    0.0000 C   0  0  2  0  0  0  0  0  0  0  0  0
   18.1711  -10.2048    0.0000 C   0  0  2  0  0  0  0  0  0  0  0  0
   18.8855  -10.6173    0.0000 C   0  0  1  0  0  0  0  0  0  0  0  0
   19.6000  -10.2048    0.0000 C   0  0  0  0  0  0  0  0  0  0  0  0
   19.6000   -9.3798    0.0000 C   0  0  1  0  0  0  0  0  0  0  0  0
   18.8855   -8.9673    0.0000 O   0  0  0  0  0  0  0  0  0  0  0  0
   21.0289  -10.2048    0.0000 C   0  0  0  0  0  0  0  0  0  0  0  0
   21.0289   -9.3798    0.0000 C   0  0  0  0  0  0  0  0  0  0  0  0
   20.3145   -8.9673    0.0000 O   0  0  0  0  0  0  0  0  0  0  0  0
   21.7435  -10.6173    0.0000 C   0  0  0  0  0  0  0  0  0  0  0  0
   22.4579  -10.2048    0.0000 C   0  0  0  0  0  0  0  0  0  0  0  0
   22.4579   -9.3798    0.0000 C   0  0  0  0  0  0  0  0  0  0  0  0
   21.7435   -8.9673    0.0000 C   0  0  0  0  0  0  0  0  0  0  0  0
   23.1724  -10.6173    0.0000 C   0  0  0  0  0  0  0  0  0  0  0  0
   23.8869  -10.2048    0.0000 C   0  0  0  0  0  0  0  0  0  0  0  0
   23.8869   -9.3798    0.0000 C   0  0  0  0  0  0  0  0  0  0  0  0
   23.1724   -8.9673    0.0000 C   0  0  0  0  0  0  0  0  0  0  0  0
   24.6013  -10.6173    0.0000 C   0  0  0  0  0  0  0  0  0  0  0  0
   25.3158  -10.2048    0.0000 C   0  0  2  0  0  0  0  0  0  0  0  0
   25.3158   -9.3798    0.0000 C   0  0  1  0  0  0  0  0  0  0  0  0
   24.6013   -8.9673    0.0000 C   0  0  0  0  0  0  0  0  0  0  0  0
   17.4566   -8.9673    0.0000 C   0  0  0  0  0  0  0  0  0  0  0  0
   18.8855  -11.4422    0.0000 O   0  0  0  0  0  0  0  0  0  0  0  0
   17.4566  -10.6173    0.0000 O   0  0  0  0  0  0  0  0  0  0  0  0
   26.7447  -10.2048    0.0000 O   0  0  0  0  0  0  0  0  0  0  0  0
   26.7447   -9.3798    0.0000 C   0  0  0  0  0  0  0  0  0  0  0  0
   26.0303   -8.9673    0.0000 C   0  0  1  0  0  0  0  0  0  0  0  0
   28.1738  -10.2048    0.0000 O   0  0  0  0  0  0  0  0  0  0  0  0
   28.1738   -9.3798    0.0000 C   0  0  1  0  0  0  0  0  0  0  0  0
   27.4592   -8.9673    0.0000 C   0  0  2  0  0  0  0  0  0  0  0  0
   25.3571  -12.1848    0.0000 O   0  0  0  0  0  0  0  0  0  0  0  0
   26.0303   -8.1425    0.0000 O   0  0  0  0  0  0  0  0  0  0  0  0
   24.6013  -11.4423    0.0000 O   0  0  0  0  0  0  0  0  0  0  0  0
   23.1724  -11.4423    0.0000 O   0  0  0  0  0  0  0  0  0  0  0  0
   21.7435  -11.4421    0.0000 O   0  0  0  0  0  0  0  0  0  0  0  0
   27.4592   -8.1423    0.0000 O   0  0  0  0  0  0  0  0  0  0  0  0
   28.8730   -8.9759    0.0000 C   0  0  0  0  0  0  0  0  0  0  0  0
   25.3305   -7.7384    0.0000 C   0  0  0  0  0  0  0  0  0  0  0  0
   22.4908  -12.2232    0.0000 C   0  0  0  0  0  0  0  0  0  0  0  0
   23.9840  -14.7002    0.0000 O   0  0  0  0  0  0  0  0  0  0  0  0
   17.4466  -13.9171    0.0000 O   0  0  0  0  0  0  0  0  0  0  0  0
   16.0116  -11.4445    0.0000 C   0  0  0  0  0  0  0  0  0  0  0  0
   16.0191  -13.1031    0.0000 O   0  0  0  0  0  0  0  0  0  0  0  0
   22.4896  -13.8770    0.0000 O   0  0  0  0  0  0  0  0  0  0  0  0
   21.1562  -14.8069    0.0000 C   0  0  0  0  0  0  0  0  0  0  0  0
   19.7926  -17.3275    0.0000 C   0  0  0  0  0  0  0  0  0  0  0  0
   20.6726  -19.6264    0.0000 C   0  0  0  0  0  0  0  0  0  0  0  0
   21.8394  -19.6264    0.0000 O   0  0  0  0  0  0  0  0  0  0  0  0
   19.8214  -18.9725    0.0000 O   0  0  0  0  0  0  0  0  0  0  0  0
   21.1812  -16.4539    0.0000 O   0  0  0  0  0  0  0  0  0  0  0  0
   20.3058  -10.6224    0.0000 C   0  0  0  0  0  0  0  0  0  0  0  0
  1  2  1  0  0  0  0
  2  3  1  0  0  0  0
  3  4  1  0  0  0  0
  4  5  1  0  0  0  0
  5  6  1  0  0  0  0
  1  6  1  0  0  0  0
  7  8  1  0  0  0  0
  8  9  1  0  0  0  0
  9 10  1  0  0  0  0
 10 11  1  0  0  0  0
 11 12  1  0  0  0  0
  7 12  1  0  0  0  0
 11 13  1  1  0  0  0
 14 15  1  0  0  0  0
 15 16  1  0  0  0  0
 16 17  1  0  0  0  0
 17 18  1  0  0  0  0
 18 19  1  0  0  0  0
 14 19  1  0  0  0  0
 20 21  1  0  0  0  0
 21 22  1  0  0  0  0
 22 23  1  0  0  0  0
 23 24  1  0  0  0  0
 24 25  1  0  0  0  0
 20 25  1  0  0  0  0
 26 27  1  0  0  0  0
 27 28  1  0  0  0  0
 28 29  1  0  0  0  0
 29 30  1  0  0  0  0
 30 31  1  0  0  0  0
 26 31  1  0  0  0  0
 32 33  2  0  0  0  0
 33 34  1  0  0  0  0
 32 35  1  0  0  0  0
 35 36  2  0  0  0  0
 36 37  1  0  0  0  0
 37 38  2  0  0  0  0
 33 38  1  0  0  0  0
 36 39  1  0  0  0  0
 39 40  2  0  0  0  0
 40 41  1  0  0  0  0
 41 42  2  0  0  0  0
 37 42  1  0  0  0  0
 40 43  1  0  0  0  0
 43 44  1  0  0  0  0
 44 45  1  0  0  0  0
 45 46  1  0  0  0  0
 41 46  1  0  0  0  0
 30 34  1  1  0  0  0
 26 47  1  1  0  0  0
 28 48  1  1  0  0  0
 27 49  1  6  0  0  0
 50 51  2  0  0  0  0
 51 52  1  0  0  0  0
 45 52  1  1  0  0  0
 54 55  1  0  0  0  0
 51 55  1  0  0  0  0
 44 56  1  6  0  0  0
 52 57  1  6  0  0  0
 43 58  2  0  0  0  0
 39 59  1  0  0  0  0
 35 60  1  0  0  0  0
 54 53  1  1  0  0  0
 55 61  1  1  0  0  0
 54 62  1  0  0  0  0
 57 63  1  0  0  0  0
 20 48  1  1  0  0  0
 14 56  1  1  0  0  0
 16 64  1  1  0  0  0
 18 65  1  1  0  0  0
 24 66  1  1  0  0  0
 22 67  1  1  0  0  0
 23 68  1  6  0  0  0
 17 69  1  6  0  0  0
  7 65  1  1  0  0  0
  1 13  1  1  0  0  0
  9 70  1  1  0  0  0
  3 71  1  1  0  0  0
  5 72  1  1  0  0  0
  5 73  1  6  0  0  0
  4 74  1  6  0  0  0
 10 75  1  1  0  0  0
 32 76  1  0  0  0  0
M  END
> <DATABASE_ID>
DB06810

> <DATABASE_NAME>
drugbank

> <SMILES>
CO[C@@H]([C@@H]1CC2=CC3=CC(O[C@H]4C[C@@H](O[C@H]5C[C@@H](O)[C@H](O)[C@@H](C)O5)[C@H](O)[C@@H](C)O4)=C(C)C(O)=C3C(O)=C2C(=O)[C@H]1O[C@H]1C[C@@H](O[C@H]2C[C@@H](O[C@H]3C[C@](C)(O)[C@H](O)[C@@H](C)O3)[C@@H](O)[C@@H](C)O2)[C@H](O)[C@@H](C)O1)C(=O)[C@@H](O)[C@@H](C)O

> <INCHI_IDENTIFIER>
InChI=1S/C52H76O24/c1-18-29(72-34-14-30(43(58)21(4)68-34)73-33-13-28(54)42(57)20(3)67-33)12-26-10-25-11-27(49(66-9)48(63)41(56)19(2)53)50(47(62)39(25)46(61)38(26)40(18)55)76-36-16-31(44(59)23(6)70-36)74-35-15-32(45(60)22(5)69-35)75-37-17-52(8,65)51(64)24(7)71-37/h10,12,19-24,27-28,30-37,41-45,49-51,53-61,64-65H,11,13-17H2,1-9H3/t19-,20-,21-,22-,23-,24-,27+,28-,30-,31-,32-,33+,34+,35+,36+,37+,41+,42-,43-,44-,45+,49+,50+,51-,52+/m1/s1

> <INCHI_KEY>
CFCUWKMKBJTWLW-BKHRDMLASA-N

> <FORMULA>
C52H76O24

> <MOLECULAR_WEIGHT>
1085.1454

> <EXACT_MASS>
1084.47265336

> <JCHEM_ACCEPTOR_COUNT>
24

> <JCHEM_AVERAGE_POLARIZABILITY>
114.41294542859433

> <JCHEM_BIOAVAILABILITY>
0

> <JCHEM_DONOR_COUNT>
11

> <JCHEM_FORMAL_CHARGE>
0

> <JCHEM_GHOSE_FILTER>
0

> <JCHEM_IUPAC>
(2S,3S)-3-[(1S,3S,4R)-3,4-dihydroxy-1-methoxy-2-oxopentyl]-2-{[(2S,4R,5R,6R)-4-{[(2S,4R,5S,6R)-4-{[(2S,4S,5R,6R)-4,5-dihydroxy-4,6-dimethyloxan-2-yl]oxy}-5-hydroxy-6-methyloxan-2-yl]oxy}-5-hydroxy-6-methyloxan-2-yl]oxy}-6-{[(2S,4R,5R,6R)-4-{[(2S,4R,5S,6R)-4,5-dihydroxy-6-methyloxan-2-yl]oxy}-5-hydroxy-6-methyloxan-2-yl]oxy}-8,9-dihydroxy-7-methyl-1,2,3,4-tetrahydroanthracen-1-one

> <ALOGPS_LOGP>
-0.23

> <JCHEM_LOGP>
2.072890882666668

> <ALOGPS_LOGS>
-2.92

> <JCHEM_MDDR_LIKE_RULE>
1

> <JCHEM_NUMBER_OF_RINGS>
8

> <JCHEM_PHYSIOLOGICAL_CHARGE>
0

> <JCHEM_PKA>
9.779212630730843

> <JCHEM_PKA_STRONGEST_ACIDIC>
8.491704000969955

> <JCHEM_PKA_STRONGEST_BASIC>
-3.5756061501231677

> <JCHEM_POLAR_SURFACE_AREA>
358.20000000000005

> <JCHEM_REFRACTIVITY>
257.00910000000016

> <JCHEM_ROTATABLE_BOND_COUNT>
15

> <JCHEM_RULE_OF_FIVE>
0

> <ALOGPS_SOLUBILITY>
1.30e+00 g/l

> <JCHEM_TRADITIONAL_IUPAC>
plicamycin

> <JCHEM_VEBER_RULE>
0

> <DRUGBANK_ID>
DB06810

> <DRUG_GROUPS>
approved; investigational; withdrawn

> <GENERIC_NAME>
Plicamycin

> <SYNONYMS>
Aureolic acid; Mithramycin; Mithramycine; Mithramycinum; Plicamicina; Plicamycin; Plicamycine; Plicamycinum

> <INTERNATIONAL_BRANDS>
Mithracin

$$$$
AZQ
  Mrv0541 02241213242D          

 23 25  0  0  0  0            999 V2000
   -0.2845   -0.9203    0.0000 C   0  0  0  0  0  0  0  0  0  0  0  0
   -1.0483   -0.6085    0.0000 C   0  0  1  0  0  0  0  0  0  0  0  0
   -0.9877    0.2143    0.0000 C   0  0  0  0  0  0  0  0  0  0  0  0
   -0.1865    0.4109    0.0000 N   0  0  0  0  0  0  0  0  0  0  0  0
    0.2035    1.1379    0.0000 C   0  0  0  0  0  0  0  0  0  0  0  0
    1.0281    1.1637    0.0000 N   0  0  0  0  0  0  0  0  0  0  0  0
    1.4627    0.4625    0.0000 C   0  0  0  0  0  0  0  0  0  0  0  0
    2.2873    0.4882    0.0000 C   0  0  0  0  0  0  0  0  0  0  0  0
    2.7219   -0.2130    0.0000 C   0  0  0  0  0  0  0  0  0  0  0  0
    2.3319   -0.9400    0.0000 C   0  0  0  0  0  0  0  0  0  0  0  0
    1.5073   -0.9658    0.0000 C   0  0  0  0  0  0  0  0  0  0  0  0
    1.0727   -0.2645    0.0000 C   0  0  0  0  0  0  0  0  0  0  0  0
    0.2481   -0.2903    0.0000 N   0  0  0  0  0  0  0  0  0  0  0  0
   -0.0879   -1.7216    0.0000 O   0  0  0  0  0  0  0  0  0  0  0  0
   -1.7496   -1.0431    0.0000 C   0  0  0  0  0  0  0  0  0  0  0  0
   -2.4766   -0.6531    0.0000 C   0  0  0  0  0  0  0  0  0  0  0  0
   -3.1778   -1.0877    0.0000 C   0  0  0  0  0  0  0  0  0  0  0  0
   -1.6178    0.7469    0.0000 O   0  0  0  0  0  0  0  0  0  0  0  0
   -0.2311    1.8392    0.0000 N   0  0  0  0  0  0  0  0  0  0  0  0
    0.1588    2.5662    0.0000 C   0  0  0  0  0  0  0  0  0  0  0  0
   -1.0557    1.8134    0.0000 C   0  0  0  0  0  0  0  0  0  0  0  0
    2.7665   -1.6413    0.0000 C   0  0  0  0  0  0  0  0  0  0  0  0
   -0.9996   -1.1904    0.0000 H   0  0  0  0  0  0  0  0  0  0  0  0
  1  2  1  0  0  0  0
  1 13  1  0  0  0  0
  1 14  2  0  0  0  0
  2  3  1  0  0  0  0
  2 15  1  6  0  0  0
  2 23  1  1  0  0  0
  3  4  1  0  0  0  0
  3 18  2  0  0  0  0
  4  5  1  0  0  0  0
  4 13  1  0  0  0  0
  5  6  2  0  0  0  0
  5 19  1  0  0  0  0
  6  7  1  0  0  0  0
  7  8  2  0  0  0  0
  7 12  1  0  0  0  0
  8  9  1  0  0  0  0
  9 10  2  0  0  0  0
 10 11  1  0  0  0  0
 10 22  1  0  0  0  0
 11 12  2  0  0  0  0
 12 13  1  0  0  0  0
 15 16  1  0  0  0  0
 16 17  2  0  0  0  0
 19 20  1  0  0  0  0
 19 21  1  0  0  0  0
M  END
> <DATABASE_ID>
DB07402

> <DATABASE_NAME>
drugbank

> <SMILES>
[H][C@@]1(CC=C)C(=O)N2N(C1=O)C1=CC(C)=CC=C1N=C2N(C)C

> <INCHI_IDENTIFIER>
InChI=1S/C16H18N4O2/c1-5-6-11-14(21)19-13-9-10(2)7-8-12(13)17-16(18(3)4)20(19)15(11)22/h5,7-9,11H,1,6H2,2-4H3/t11-/m0/s1

> <INCHI_KEY>
WOIIIUDZSOLAIW-NSHDSACASA-N

> <FORMULA>
C16H18N4O2

> <MOLECULAR_WEIGHT>
298.3397

> <EXACT_MASS>
298.14297584

> <JCHEM_ACCEPTOR_COUNT>
4

> <JCHEM_AVERAGE_POLARIZABILITY>
31.941668519875726

> <JCHEM_BIOAVAILABILITY>
1

> <JCHEM_DONOR_COUNT>
0

> <JCHEM_FORMAL_CHARGE>
0

> <JCHEM_GHOSE_FILTER>
1

> <JCHEM_IUPAC>
(4S)-7-(dimethylamino)-12-methyl-4-(prop-2-en-1-yl)-2,6,8-triazatricyclo[7.4.0.0²,⁶]trideca-1(13),7,9,11-tetraene-3,5-dione

> <ALOGPS_LOGP>
0.92

> <JCHEM_LOGP>
2.0770522305713186

> <ALOGPS_LOGS>
-2.67

> <JCHEM_MDDR_LIKE_RULE>
0

> <JCHEM_NUMBER_OF_RINGS>
3

> <JCHEM_PHYSIOLOGICAL_CHARGE>
0

> <JCHEM_PKA_STRONGEST_ACIDIC>
0.5158047408109683

> <JCHEM_PKA_STRONGEST_BASIC>
7.576685069604842

> <JCHEM_POLAR_SURFACE_AREA>
56.22

> <JCHEM_REFRACTIVITY>
85.68989999999998

> <JCHEM_ROTATABLE_BOND_COUNT>
2

> <JCHEM_RULE_OF_FIVE>
1

> <ALOGPS_SOLUBILITY>
6.41e-01 g/l

> <JCHEM_TRADITIONAL_IUPAC>
azapropazone

> <JCHEM_VEBER_RULE>
0

> <DRUGBANK_ID>
DB07402

> <DRUG_GROUPS>
withdrawn

> <GENERIC_NAME>
Azapropazone

> <SYNONYMS>
1,2-Dihydro-3-dimethylamino-7-methyl-1,2-(propylmalonyl)-1,2,4-benzotriazine; 3-Dimethylamino-7-methyl-1,2-(n-propylmalonyl)-1,2-dihydro-1,2,4-benzotriazine; 5-(Dimethylamino)-9-methyl-2-propyl-1H-pyrazolo(1,2-a)(1,2,4)benzotriazine-1,3(2H)-dione; Apazone; Azapropazon; Azapropazona; Azapropazone; Azapropazonum

> <INTERNATIONAL_BRANDS>
Rheumox

$$$$
HXS
  Mrv0541 02241213442D          

 22 23  0  0  0  0            999 V2000
   -1.0595    2.2472    0.0000 C   0  0  0  0  0  0  0  0  0  0  0  0
   -0.3450    2.6597    0.0000 C   0  0  0  0  0  0  0  0  0  0  0  0
    0.3695    2.2472    0.0000 C   0  0  0  0  0  0  0  0  0  0  0  0
    0.3695    1.4222    0.0000 C   0  0  0  0  0  0  0  0  0  0  0  0
   -0.3450    1.0097    0.0000 C   0  0  0  0  0  0  0  0  0  0  0  0
   -0.3450    3.4847    0.0000 O   0  0  0  0  0  0  0  0  0  0  0  0
   -1.0595    1.4222    0.0000 C   0  0  0  0  0  0  0  0  0  0  0  0
   -0.3450    0.1847    0.0000 C   0  0  2  0  0  0  0  0  0  0  0  0
   -1.0595   -0.2278    0.0000 C   0  0  0  0  0  0  0  0  0  0  0  0
   -1.7739    0.1847    0.0000 C   0  0  0  0  0  0  0  0  0  0  0  0
    0.3695   -0.2278    0.0000 C   0  0  2  0  0  0  0  0  0  0  0  0
    1.0840    0.1847    0.0000 C   0  0  0  0  0  0  0  0  0  0  0  0
    1.7984   -0.2278    0.0000 C   0  0  0  0  0  0  0  0  0  0  0  0
    0.3695   -1.0528    0.0000 C   0  0  0  0  0  0  0  0  0  0  0  0
    1.0840   -1.4653    0.0000 C   0  0  0  0  0  0  0  0  0  0  0  0
    1.0840   -2.2903    0.0000 C   0  0  0  0  0  0  0  0  0  0  0  0
    0.3695   -2.7028    0.0000 C   0  0  0  0  0  0  0  0  0  0  0  0
    0.3695   -3.5278    0.0000 O   0  0  0  0  0  0  0  0  0  0  0  0
   -0.3450   -2.2903    0.0000 C   0  0  0  0  0  0  0  0  0  0  0  0
   -0.3450   -1.4653    0.0000 C   0  0  0  0  0  0  0  0  0  0  0  0
   -0.8507    0.4767    0.0000 H   0  0  0  0  0  0  0  0  0  0  0  0
    0.3695    0.3562    0.0000 H   0  0  0  0  0  0  0  0  0  0  0  0
  1  2  2  0  0  0  0
  1  7  1  0  0  0  0
  2  3  1  0  0  0  0
  2  6  1  0  0  0  0
  3  4  2  0  0  0  0
  4  5  1  0  0  0  0
  5  7  2  0  0  0  0
  5  8  1  0  0  0  0
  8  9  1  1  0  0  0
  8 11  1  0  0  0  0
  8 21  1  6  0  0  0
  9 10  1  0  0  0  0
 11 12  1  0  0  0  0
 11 14  1  1  0  0  0
 11 22  1  1  0  0  0
 12 13  1  0  0  0  0
 14 15  2  0  0  0  0
 14 20  1  0  0  0  0
 15 16  1  0  0  0  0
 16 17  2  0  0  0  0
 17 18  1  0  0  0  0
 17 19  1  0  0  0  0
 19 20  2  0  0  0  0
M  END
> <DATABASE_ID>
DB07931

> <DATABASE_NAME>
drugbank

> <SMILES>
[H][C@](CC)(C1=CC=C(O)C=C1)[C@]([H])(CC)C1=CC=C(O)C=C1

> <INCHI_IDENTIFIER>
InChI=1S/C18H22O2/c1-3-17(13-5-9-15(19)10-6-13)18(4-2)14-7-11-16(20)12-8-14/h5-12,17-20H,3-4H2,1-2H3/t17-,18+

> <INCHI_KEY>
PBBGSZCBWVPOOL-HDICACEKSA-N

> <FORMULA>
C18H22O2

> <MOLECULAR_WEIGHT>
270.3661

> <EXACT_MASS>
270.161979948

> <JCHEM_ACCEPTOR_COUNT>
2

> <JCHEM_AVERAGE_POLARIZABILITY>
31.306252312554726

> <JCHEM_BIOAVAILABILITY>
1

> <JCHEM_DONOR_COUNT>
2

> <JCHEM_FORMAL_CHARGE>
0

> <JCHEM_GHOSE_FILTER>
1

> <JCHEM_IUPAC>
4-[(3R,4S)-4-(4-hydroxyphenyl)hexan-3-yl]phenol

> <ALOGPS_LOGP>
4.98

> <JCHEM_LOGP>
5.365653387333333

> <ALOGPS_LOGS>
-4.29

> <JCHEM_MDDR_LIKE_RULE>
0

> <JCHEM_NUMBER_OF_RINGS>
2

> <JCHEM_PHYSIOLOGICAL_CHARGE>
0

> <JCHEM_PKA>
10.528838560353584

> <JCHEM_PKA_STRONGEST_ACIDIC>
9.92658743011141

> <JCHEM_PKA_STRONGEST_BASIC>
-5.4484876357871075

> <JCHEM_POLAR_SURFACE_AREA>
40.46

> <JCHEM_REFRACTIVITY>
82.6572

> <JCHEM_ROTATABLE_BOND_COUNT>
5

> <JCHEM_RULE_OF_FIVE>
0

> <ALOGPS_SOLUBILITY>
1.39e-02 g/l

> <JCHEM_TRADITIONAL_IUPAC>
hexestrol

> <JCHEM_VEBER_RULE>
0

> <DRUGBANK_ID>
DB07931

> <SECONDARY_ACCESSION_NUMBERS>
DB08959

> <DRUG_GROUPS>
withdrawn

> <GENERIC_NAME>
Hexestrol

> <SYNONYMS>
4,4'-(1,2-diethylethylene)diphenol; Erythrohexestrol; Hexanoestrol; Hexoestrolum; Meso-3,4-di(p-hydroxyphenyl)-n-hexane; Meso-hexestrol; Mesohexestrol; Synoestrolum

> <INTERNATIONAL_BRANDS>
Hexoestrol; Synestrol

> <SALTS>
Hexestrol diphosphate sodium

$$$$

  Mrv1572004061620022D          

 30 33  0  0  0  0            999 V2000
    2.5006   -3.0937    0.0000 C   0  0  0  0  0  0  0  0  0  0  0  0
    2.5006   -2.2687    0.0000 C   0  0  0  0  0  0  0  0  0  0  0  0
    2.5006    2.6812    0.0000 C   0  0  0  0  0  0  0  0  0  0  0  0
   -2.5006   -1.0312    0.0000 C   0  0  0  0  0  0  0  0  0  0  0  0
    1.7861    3.0937    0.0000 C   0  0  0  0  0  0  0  0  0  0  0  0
   -2.5006   -1.8562    0.0000 C   0  0  0  0  0  0  0  0  0  0  0  0
    2.5006    1.8562    0.0000 C   0  0  0  0  0  0  0  0  0  0  0  0
   -1.7861   -0.6187    0.0000 C   0  0  0  0  0  0  0  0  0  0  0  0
    1.0717    2.6812    0.0000 C   0  0  0  0  0  0  0  0  0  0  0  0
   -1.7861   -2.2687    0.0000 C   0  0  0  0  0  0  0  0  0  0  0  0
    1.7861    1.4437    0.0000 C   0  0  0  0  0  0  0  0  0  0  0  0
   -1.0717   -1.0312    0.0000 C   0  0  0  0  0  0  0  0  0  0  0  0
    1.0717    1.8562    0.0000 C   0  0  0  0  0  0  0  0  0  0  0  0
   -1.0717   -1.8562    0.0000 C   0  0  0  0  0  0  0  0  0  0  0  0
    1.0717   -0.6187    0.0000 C   0  0  0  0  0  0  0  0  0  0  0  0
    1.0717    0.2062    0.0000 C   0  0  0  0  0  0  0  0  0  0  0  0
    0.3572   -1.0312    0.0000 C   0  0  0  0  0  0  0  0  0  0  0  0
    1.7861    0.6187    0.0000 C   0  0  0  0  0  0  0  0  0  0  0  0
   -0.3572   -0.6187    0.0000 C   0  0  0  0  0  0  0  0  0  0  0  0
    1.7861   -1.0312    0.0000 C   0  0  0  0  0  0  0  0  0  0  0  0
    0.3572    0.6187    0.0000 C   0  0  0  0  0  0  0  0  0  0  0  0
    0.3572   -1.8562    0.0000 C   0  0  0  0  0  0  0  0  0  0  0  0
    2.5006    0.2062    0.0000 O   0  0  0  0  0  0  0  0  0  0  0  0
   -0.3572    0.2062    0.0000 O   0  0  0  0  0  0  0  0  0  0  0  0
    2.5006   -0.6187    0.0000 O   0  0  0  0  0  0  0  0  0  0  0  0
   -0.4632    0.7049    0.0000 O   0  0  0  0  0  0  0  0  0  0  0  0
    1.0717   -2.2687    0.0000 O   0  0  0  0  0  0  0  0  0  0  0  0
    1.7861   -1.8562    0.0000 O   0  0  0  0  0  0  0  0  0  0  0  0
    0.3572    1.4437    0.0000 O   0  0  0  0  0  0  0  0  0  0  0  0
   -0.3572   -2.2687    0.0000 O   0  0  0  0  0  0  0  0  0  0  0  0
  2  1  1  0  0  0  0
  5  3  2  0  0  0  0
  6  4  2  0  0  0  0
  7  3  1  0  0  0  0
  8  4  1  0  0  0  0
  9  5  1  0  0  0  0
 10  6  1  0  0  0  0
 11  7  2  0  0  0  0
 12  8  2  0  0  0  0
 13  9  2  0  0  0  0
 13 11  1  0  0  0  0
 14 10  2  0  0  0  0
 14 12  1  0  0  0  0
 16 15  1  0  0  0  0
 17 15  1  0  0  0  0
 18 11  1  0  0  0  0
 18 16  2  0  0  0  0
 19 12  1  0  0  0  0
 19 17  2  0  0  0  0
 20 15  1  0  0  0  0
 21 16  1  0  0  0  0
 22 17  1  0  0  0  0
 23 18  1  0  0  0  0
 24 19  1  0  0  0  0
 25 20  2  0  0  0  0
 26 21  2  0  0  0  0
 27 22  2  0  0  0  0
 28  2  1  0  0  0  0
 28 20  1  0  0  0  0
 29 13  1  0  0  0  0
 29 21  1  0  0  0  0
 30 14  1  0  0  0  0
 30 22  1  0  0  0  0
M  END
> <DATABASE_ID>
DB08794

> <DATABASE_NAME>
drugbank

> <SMILES>
CCOC(=O)C(C1=C(O)C2=CC=CC=C2OC1=O)C1=C(O)C2=CC=CC=C2OC1=O

> <INCHI_IDENTIFIER>
InChI=1S/C22H16O8/c1-2-28-20(25)15(16-18(23)11-7-3-5-9-13(11)29-21(16)26)17-19(24)12-8-4-6-10-14(12)30-22(17)27/h3-10,15,23-24H,2H2,1H3

> <INCHI_KEY>
JCLHQFUTFHUXNN-UHFFFAOYSA-N

> <FORMULA>
C22H16O8

> <MOLECULAR_WEIGHT>
408.362

> <EXACT_MASS>
408.084517475

> <JCHEM_ACCEPTOR_COUNT>
5

> <JCHEM_ATOM_COUNT>
46

> <JCHEM_AVERAGE_POLARIZABILITY>
39.97888629716445

> <JCHEM_BIOAVAILABILITY>
1

> <JCHEM_DONOR_COUNT>
2

> <JCHEM_FORMAL_CHARGE>
0

> <JCHEM_GHOSE_FILTER>
1

> <JCHEM_IUPAC>
ethyl 2,2-bis(4-hydroxy-2-oxo-2H-chromen-3-yl)acetate

> <ALOGPS_LOGP>
2.18

> <JCHEM_LOGP>
1.6678783676666664

> <ALOGPS_LOGS>
-3.78

> <JCHEM_MDDR_LIKE_RULE>
0

> <JCHEM_NUMBER_OF_RINGS>
4

> <JCHEM_PHYSIOLOGICAL_CHARGE>
-2

> <JCHEM_PKA>
5.55610554044304

> <JCHEM_PKA_STRONGEST_ACIDIC>
4.822884030553499

> <JCHEM_PKA_STRONGEST_BASIC>
-6.689605904098842

> <JCHEM_POLAR_SURFACE_AREA>
119.36

> <JCHEM_REFRACTIVITY>
104.95039999999997

> <JCHEM_ROTATABLE_BOND_COUNT>
5

> <JCHEM_RULE_OF_FIVE>
1

> <ALOGPS_SOLUBILITY>
6.77e-02 g/l

> <JCHEM_TRADITIONAL_IUPAC>
ethyl biscoumacetate

> <JCHEM_VEBER_RULE>
0

> <DRUGBANK_ID>
DB08794

> <DRUG_GROUPS>
withdrawn

> <GENERIC_NAME>
Ethyl biscoumacetate

> <SYNONYMS>
Ethyl bis(4-hydroxy-2-oxo-2h-1-benzopyran-3-yl)acetate; Ethyldicoumarol

$$$$

  Mrv0541 02231218132D          

 39 41  0  0  1  0            999 V2000
    5.5001    0.5948    0.0000 O   0  0  0  0  0  0  0  0  0  0  0  0
    4.8396   -0.3143    0.0000 O   0  0  0  0  0  0  0  0  0  0  0  0
    6.9013    3.2187    0.0000 O   0  0  0  0  0  0  0  0  0  0  0  0
    4.0145   -3.1724    0.0000 O   0  0  0  0  0  0  0  0  0  0  0  0
    8.2182    1.4779    0.0000 O   0  0  0  0  0  0  0  0  0  0  0  0
    6.0771   -1.0289    0.0000 N   0  0  0  0  0  0  0  0  0  0  0  0
    6.8591    1.0364    0.0000 N   0  0  0  0  0  0  0  0  0  0  0  0
    4.0145   -1.7433    0.0000 N   0  0  0  0  0  0  0  0  0  0  0  0
    2.7770   -2.4578    0.0000 N   0  0  0  0  0  0  0  0  0  0  0  0
    8.5153    2.8757    0.0000 N   0  0  0  0  0  0  0  0  0  0  0  0
    7.3467   -0.6164    0.0000 C   0  0  1  0  0  0  0  0  0  0  0  0
    8.0616   -1.0289    0.0000 C   0  0  0  0  0  0  0  0  0  0  0  0
    7.3467   -1.4414    0.0000 C   0  0  1  0  0  0  0  0  0  0  0  0
    6.5620   -0.3614    0.0000 C   0  0  1  0  0  0  0  0  0  0  0  0
    6.5620   -1.6963    0.0000 C   0  0  0  0  0  0  0  0  0  0  0  0
    8.4741   -1.7433    0.0000 C   0  0  0  0  0  0  0  0  0  0  0  0
    8.4741   -0.3143    0.0000 C   0  0  0  0  0  0  0  0  0  0  0  0
    6.3071    0.4232    0.0000 C   0  0  0  0  0  0  0  0  0  0  0  0
    5.2521   -1.0289    0.0000 C   0  0  0  0  0  0  0  0  0  0  0  0
    4.8396   -1.7433    0.0000 C   0  0  2  0  0  0  0  0  0  0  0  0
    5.2521   -2.4578    0.0000 C   0  0  0  0  0  0  0  0  0  0  0  0
    6.6042    1.8210    0.0000 C   0  0  0  0  0  0  0  0  0  0  0  0
    5.7972    1.9925    0.0000 C   0  0  0  0  0  0  0  0  0  0  0  0
    5.5422    2.7772    0.0000 C   0  0  0  0  0  0  0  0  0  0  0  0
    5.6646   -3.1724    0.0000 C   0  0  0  0  0  0  0  0  0  0  0  0
    4.5376   -2.8703    0.0000 C   0  0  0  0  0  0  0  0  0  0  0  0
    5.9666   -2.0453    0.0000 C   0  0  0  0  0  0  0  0  0  0  0  0
    7.1562    2.4341    0.0000 C   0  0  0  0  0  0  0  0  0  0  0  0
    5.9168    3.5123    0.0000 C   0  0  0  0  0  0  0  0  0  0  0  0
    4.8071    3.1517    0.0000 C   0  0  0  0  0  0  0  0  0  0  0  0
    5.1817    3.8868    0.0000 C   0  0  0  0  0  0  0  0  0  0  0  0
    3.6020   -2.4578    0.0000 C   0  0  0  0  0  0  0  0  0  0  0  0
    7.9632    2.2625    0.0000 C   0  0  0  0  0  0  0  0  0  0  0  0
    2.3645   -3.1724    0.0000 C   0  0  0  0  0  0  0  0  0  0  0  0
    1.9520   -3.8868    0.0000 C   0  0  0  0  0  0  0  0  0  0  0  0
    1.6500   -2.7599    0.0000 C   0  0  0  0  0  0  0  0  0  0  0  0
    3.0791   -3.5849    0.0000 C   0  0  0  0  0  0  0  0  0  0  0  0
    7.6318    0.0243    0.0000 H   0  0  0  0  0  0  0  0  0  0  0  0
    7.6318   -2.0820    0.0000 H   0  0  0  0  0  0  0  0  0  0  0  0
  1 18  2  0  0  0  0
  2 19  2  0  0  0  0
  3 28  2  0  0  0  0
  4 32  2  0  0  0  0
  5 33  2  0  0  0  0
  6 14  1  0  0  0  0
  6 15  1  0  0  0  0
  6 19  1  0  0  0  0
  7 18  1  0  0  0  0
  7 22  1  0  0  0  0
 20  8  1  6  0  0  0
  8 32  1  0  0  0  0
  9 32  1  0  0  0  0
  9 34  1  0  0  0  0
 10 33  1  0  0  0  0
 11 12  1  0  0  0  0
 11 13  1  0  0  0  0
 11 14  1  0  0  0  0
 11 38  1  6  0  0  0
 12 13  1  0  0  0  0
 12 16  1  0  0  0  0
 12 17  1  0  0  0  0
 13 15  1  0  0  0  0
 13 39  1  6  0  0  0
 14 18  1  6  0  0  0
 19 20  1  0  0  0  0
 20 21  1  0  0  0  0
 21 25  1  0  0  0  0
 21 26  1  0  0  0  0
 21 27  1  0  0  0  0
 22 23  1  0  0  0  0
 22 28  1  0  0  0  0
 23 24  1  0  0  0  0
 24 29  1  0  0  0  0
 24 30  1  0  0  0  0
 28 33  1  0  0  0  0
 29 31  1  0  0  0  0
 30 31  1  0  0  0  0
 34 35  1  0  0  0  0
 34 36  1  0  0  0  0
 34 37  1  0  0  0  0
M  END
> <DATABASE_ID>
DB08873

> <DATABASE_NAME>
drugbank

> <SMILES>
[H][C@]12CN([C@H](C(=O)NC(CC3CCC3)C(=O)C(N)=O)[C@@]1([H])C2(C)C)C(=O)[C@@H](NC(=O)NC(C)(C)C)C(C)(C)C

> <INCHI_IDENTIFIER>
InChI=1S/C27H45N5O5/c1-25(2,3)20(30-24(37)31-26(4,5)6)23(36)32-13-15-17(27(15,7)8)18(32)22(35)29-16(19(33)21(28)34)12-14-10-9-11-14/h14-18,20H,9-13H2,1-8H3,(H2,28,34)(H,29,35)(H2,30,31,37)/t15-,16?,17-,18-,20+/m0/s1

> <INCHI_KEY>
LHHCSNFAOIFYRV-DOVBMPENSA-N

> <FORMULA>
C27H45N5O5

> <MOLECULAR_WEIGHT>
519.6767

> <EXACT_MASS>
519.342069575

> <JCHEM_ACCEPTOR_COUNT>
5

> <JCHEM_AVERAGE_POLARIZABILITY>
56.77517708289216

> <JCHEM_BIOAVAILABILITY>
1

> <JCHEM_DONOR_COUNT>
4

> <JCHEM_FORMAL_CHARGE>
0

> <JCHEM_GHOSE_FILTER>
0

> <JCHEM_IUPAC>
3-{[(1R,2S,5S)-3-[(2S)-2-[(tert-butylcarbamoyl)amino]-3,3-dimethylbutanoyl]-6,6-dimethyl-3-azabicyclo[3.1.0]hexan-2-yl]formamido}-4-cyclobutyl-2-oxobutanamide

> <ALOGPS_LOGP>
1.93

> <JCHEM_LOGP>
1.7752963963333332

> <ALOGPS_LOGS>
-4.35

> <JCHEM_MDDR_LIKE_RULE>
1

> <JCHEM_NUMBER_OF_RINGS>
3

> <JCHEM_PHYSIOLOGICAL_CHARGE>
0

> <JCHEM_PKA>
13.573599881096818

> <JCHEM_PKA_STRONGEST_ACIDIC>
12.435855168857742

> <JCHEM_PKA_STRONGEST_BASIC>
-0.9148137313763057

> <JCHEM_POLAR_SURFACE_AREA>
150.7

> <JCHEM_REFRACTIVITY>
138.202

> <JCHEM_ROTATABLE_BOND_COUNT>
10

> <JCHEM_RULE_OF_FIVE>
0

> <ALOGPS_SOLUBILITY>
2.34e-02 g/l

> <JCHEM_TRADITIONAL_IUPAC>
boceprevir

> <JCHEM_VEBER_RULE>
0

> <DRUGBANK_ID>
DB08873

> <SECONDARY_ACCESSION_NUMBERS>
DB05665

> <DRUG_GROUPS>
approved; withdrawn

> <GENERIC_NAME>
Boceprevir

> <SYNONYMS>
Boceprevir

> <PRODUCTS>
Victrelis; Victrelis Triple

$$$$

  Mrv0541 05161311102D          

 32 34  0  0  1  0            999 V2000
    4.3405    2.0419    0.0000 N   0  0  0  0  0  0  0  0  0  0  0  0
    3.6302    3.2799    0.0000 N   0  0  0  0  0  0  0  0  0  0  0  0
    2.9150    2.0419    0.0000 C   0  0  0  0  0  0  0  0  0  0  0  0
    2.9150    2.8656    0.0000 C   0  0  0  0  0  0  0  0  0  0  0  0
    3.6302    1.6375    0.0000 C   0  0  0  0  0  0  0  0  0  0  0  0
    4.3405    2.8656    0.0000 C   0  0  0  0  0  0  0  0  0  0  0  0
    2.1949    1.6375    0.0000 N   0  0  0  0  0  0  0  0  0  0  0  0
   -2.8410    0.5770    0.0000 C   0  0  0  0  0  0  0  0  0  0  0  0
    2.1949    3.2799    0.0000 N   0  0  0  0  0  0  0  0  0  0  0  0
   -2.8804   -0.2417    0.0000 N   0  0  0  0  0  0  0  0  0  0  0  0
   -4.2911   -0.1677    0.0000 C   0  0  0  0  0  0  0  0  0  0  0  0
   -3.6054   -0.6116    0.0000 C   0  0  2  0  0  0  0  0  0  0  0  0
   -3.0136   -2.6832    0.0000 C   0  0  0  0  0  0  0  0  0  0  0  0
   -2.0962    0.9717    0.0000 C   0  0  0  0  0  0  0  0  0  0  0  0
    1.4847    2.0419    0.0000 C   0  0  0  0  0  0  0  0  0  0  0  0
   -4.2566    0.6510    0.0000 O   0  0  0  0  0  0  0  0  0  0  0  0
   -3.5315    1.0308    0.0000 O   0  0  0  0  0  0  0  0  0  0  0  0
   -2.3477   -3.2109    0.0000 O   0  0  0  0  0  0  0  0  0  0  0  0
   -5.0408   -0.5524    0.0000 O   0  0  0  0  0  0  0  0  0  0  0  0
    0.0937    2.0715    0.0000 N   0  0  0  0  0  0  0  0  0  0  0  0
   -3.7732   -2.9792    0.0000 O   0  0  0  0  0  0  0  0  0  0  0  0
    3.6302    0.7991    0.0000 N   0  0  0  0  0  0  0  0  0  0  0  0
    1.4847    2.8656    0.0000 C   0  0  0  0  0  0  0  0  0  0  0  0
    5.0457    3.2799    0.0000 N   0  0  0  0  0  0  0  0  0  0  0  0
   -3.6646   -1.4847    0.0000 C   0  0  0  0  0  0  0  0  0  0  0  0
   -1.4007    0.5179    0.0000 C   0  0  0  0  0  0  0  0  0  0  0  0
   -2.0567    1.7854    0.0000 C   0  0  0  0  0  0  0  0  0  0  0  0
    0.7744    1.6079    0.0000 C   0  0  0  0  0  0  0  0  0  0  0  0
   -2.9002   -1.8644    0.0000 C   0  0  0  0  0  0  0  0  0  0  0  0
   -0.6165    1.7263    0.0000 C   0  0  0  0  0  0  0  0  0  0  0  0
   -1.3120    2.1701    0.0000 C   0  0  0  0  0  0  0  0  0  0  0  0
   -0.6806    0.8879    0.0000 C   0  0  0  0  0  0  0  0  0  0  0  0
  2  6  2  0  0  0  0
  3  5  1  0  0  0  0
  4  2  1  0  0  0  0
  5  1  2  0  0  0  0
  6  1  1  0  0  0  0
  7  3  1  0  0  0  0
  8 14  1  0  0  0  0
  9  4  1  0  0  0  0
 10  8  1  0  0  0  0
 11 12  1  0  0  0  0
 12 10  1  1  0  0  0
 13 29  1  0  0  0  0
 14 26  1  0  0  0  0
 15  7  2  0  0  0  0
 16 11  1  0  0  0  0
 17  8  2  0  0  0  0
 18 13  1  0  0  0  0
 19 11  2  0  0  0  0
 20 28  1  0  0  0  0
 21 13  2  0  0  0  0
 22  5  1  0  0  0  0
 23  9  2  0  0  0  0
 24  6  1  0  0  0  0
 25 12  1  0  0  0  0
 26 32  2  0  0  0  0
 27 31  1  0  0  0  0
 28 15  1  0  0  0  0
 29 25  1  0  0  0  0
 30 20  1  0  0  0  0
 31 30  2  0  0  0  0
 32 30  1  0  0  0  0
  4  3  2  0  0  0  0
 23 15  1  0  0  0  0
 27 14  2  0  0  0  0
M  END
> <DATABASE_ID>
DB08878

> <DATABASE_NAME>
drugbank

> <SMILES>
NC1=NC2=C(N=C(CNC3=CC=C(C=C3)C(=O)N[C@@H](CCC(O)=O)C(O)=O)C=N2)C(N)=N1

> <INCHI_IDENTIFIER>
InChI=1S/C19H20N8O5/c20-15-14-16(27-19(21)26-15)23-8-11(24-14)7-22-10-3-1-9(2-4-10)17(30)25-12(18(31)32)5-6-13(28)29/h1-4,8,12,22H,5-7H2,(H,25,30)(H,28,29)(H,31,32)(H4,20,21,23,26,27)/t12-/m0/s1

> <INCHI_KEY>
TVZGACDUOSZQKY-LBPRGKRZSA-N

> <FORMULA>
C19H20N8O5

> <MOLECULAR_WEIGHT>
440.4127

> <EXACT_MASS>
440.15566579

> <JCHEM_ACCEPTOR_COUNT>
12

> <JCHEM_AVERAGE_POLARIZABILITY>
44.13591320538208

> <JCHEM_BIOAVAILABILITY>
0

> <JCHEM_DONOR_COUNT>
6

> <JCHEM_FORMAL_CHARGE>
0

> <JCHEM_GHOSE_FILTER>
0

> <JCHEM_IUPAC>
(2S)-2-[(4-{[(2,4-diaminopteridin-6-yl)methyl]amino}phenyl)formamido]pentanedioic acid

> <ALOGPS_LOGP>
-0.25

> <JCHEM_LOGP>
-0.9509002766697335

> <ALOGPS_LOGS>
-3.62

> <JCHEM_MDDR_LIKE_RULE>
1

> <JCHEM_NUMBER_OF_RINGS>
3

> <JCHEM_PHYSIOLOGICAL_CHARGE>
-2

> <JCHEM_PKA>
4.175127394711253

> <JCHEM_PKA_STRONGEST_ACIDIC>
3.3831794679262366

> <JCHEM_PKA_STRONGEST_BASIC>
2.2502863730564147

> <JCHEM_POLAR_SURFACE_AREA>
219.33000000000004

> <JCHEM_REFRACTIVITY>
114.97599999999998

> <JCHEM_ROTATABLE_BOND_COUNT>
9

> <JCHEM_RULE_OF_FIVE>
0

> <ALOGPS_SOLUBILITY>
1.06e-01 g/l

> <JCHEM_TRADITIONAL_IUPAC>
4-aminopteroylglutamic acid

> <JCHEM_VEBER_RULE>
0

> <DRUGBANK_ID>
DB08878

> <DRUG_GROUPS>
investigational; withdrawn

> <GENERIC_NAME>
Aminopterin

> <SYNONYMS>
4-amino-4-deoxypteroylglutamate; 4-amino-PGA; 4-aminofolic acid; 4-aminopteroylglutamic acid; Aminopteridine; Aminopterine; APGA; Minopterin ; N-(4-(((2,4-diamino-6-pteridinyl)methyl)amino)benzoyl)-L-glutamic acid; Pteramina

$$$$
 
  Mrv0541 06131321242D          
 
 25 28  0  0  1  0            999 V2000
   14.3963   -9.9000    0.0000 C   0  0  1  0  0  0  0  0  0  0  0  0
   14.3963  -10.7250    0.0000 C   0  0  1  0  0  0  0  0  0  0  0  0
   15.8252  -10.7250    0.0000 C   0  0  0  0  0  0  0  0  0  0  0  0
   15.8252   -9.9000    0.0000 C   0  0  0  0  0  0  0  0  0  0  0  0
   15.1107   -9.4875    0.0000 C   0  0  0  0  0  0  0  0  0  0  0  0
   13.6818   -9.4875    0.0000 C   0  0  0  0  0  0  0  0  0  0  0  0
   12.9673   -9.9000    0.0000 C   0  0  0  0  0  0  0  0  0  0  0  0
   12.9673  -10.7250    0.0000 C   0  0  1  0  0  0  0  0  0  0  0  0
   13.6818  -11.1375    0.0000 C   0  0  1  0  0  0  0  0  0  0  0  0
   12.2528  -11.1375    0.0000 C   0  0  2  0  0  0  0  0  0  0  0  0
   12.2528  -11.9625    0.0000 C   0  0  0  0  0  0  0  0  0  0  0  0
   12.9673  -12.3750    0.0000 C   0  0  0  0  0  0  0  0  0  0  0  0
   13.6818  -11.9625    0.0000 C   0  0  0  0  0  0  0  0  0  0  0  0
   11.5384  -10.7250    0.0000 C   0  0  0  0  0  0  0  0  0  0  0  0
   10.8239  -11.1375    0.0000 C   0  0  0  0  0  0  0  0  0  0  0  0
   10.8239  -11.9625    0.0000 C   0  0  0  0  0  0  0  0  0  0  0  0
   11.5384  -12.3750    0.0000 C   0  0  0  0  0  0  0  0  0  0  0  0
   10.0972  -12.3822    0.0000 O   0  0  0  0  0  0  0  0  0  0  0  0
   15.1107   -8.6626    0.0000 O   0  0  0  0  0  0  0  0  0  0  0  0
   11.5384  -13.1999    0.0000 O   0  0  0  0  0  0  0  0  0  0  0  0
   12.2528  -10.3125    0.0000 C   0  0  0  0  0  0  0  0  0  0  0  0
   13.6818  -10.3125    0.0000 H   0  0  0  0  0  0  0  0  0  0  0  0
   14.3963   -9.0750    0.0000 C   0  0  0  0  0  0  0  0  0  0  0  0
   12.9673  -11.5500    0.0000 H   0  0  0  0  0  0  0  0  0  0  0  0
   14.3963  -11.5500    0.0000 H   0  0  0  0  0  0  0  0  0  0  0  0
  1  2  1  0  0  0  0
  2  3  1  0  0  0  0
  3  4  1  0  0  0  0
  4  5  1  0  0  0  0
  1  5  1  0  0  0  0
  1  6  1  0  0  0  0
  6  7  1  0  0  0  0
  7  8  1  0  0  0  0
  8  9  1  0  0  0  0
  9  2  1  0  0  0  0
  8 10  1  0  0  0  0
 10 11  1  0  0  0  0
 11 12  1  0  0  0  0
 12 13  1  0  0  0  0
 13  9  1  0  0  0  0
 10 14  1  0  0  0  0
 14 15  1  0  0  0  0
 15 16  1  0  0  0  0
 16 17  1  0  0  0  0
 17 11  2  0  0  0  0
 16 18  2  0  0  0  0
  5 19  2  0  0  0  0
 17 20  1  0  0  0  0
 10 21  1  1  0  0  0
  9 22  1  1  0  0  0
  1 23  1  1  0  0  0
  8 24  1  6  0  0  0
  2 25  1  6  0  0  0
M  END
> <DATABASE_ID>
DB08905

> <DATABASE_NAME>
drugbank

> <SMILES>
[H][C@@]12CCC(=O)[C@@]1(C)CC[C@@]1([H])[C@@]2([H])CCC2=C(O)C(=O)CC[C@]12C

> <INCHI_IDENTIFIER>
InChI=1S/C19H26O3/c1-18-10-8-15(20)17(22)14(18)4-3-11-12-5-6-16(21)19(12,2)9-7-13(11)18/h11-13,22H,3-10H2,1-2H3/t11-,12-,13-,18+,19-/m0/s1

> <INCHI_KEY>
OSVMTWJCGUFAOD-KZQROQTASA-N

> <FORMULA>
C19H26O3

> <MOLECULAR_WEIGHT>
302.4079

> <EXACT_MASS>
302.188194698

> <JCHEM_ACCEPTOR_COUNT>
3

> <JCHEM_AVERAGE_POLARIZABILITY>
34.072960394667355

> <JCHEM_BIOAVAILABILITY>
1

> <JCHEM_DONOR_COUNT>
1

> <JCHEM_FORMAL_CHARGE>
0

> <JCHEM_GHOSE_FILTER>
1

> <JCHEM_IUPAC>
(1S,2R,10R,11S,15S)-6-hydroxy-2,15-dimethyltetracyclo[8.7.0.0²,⁷.0¹¹,¹⁵]heptadec-6-ene-5,14-dione

> <ALOGPS_LOGP>
2.57

> <JCHEM_LOGP>
3.4102933220000002

> <ALOGPS_LOGS>
-3.72

> <JCHEM_MDDR_LIKE_RULE>
0

> <JCHEM_NUMBER_OF_RINGS>
4

> <JCHEM_PHYSIOLOGICAL_CHARGE>
0

> <JCHEM_PKA>
19.957139088182295

> <JCHEM_PKA_STRONGEST_ACIDIC>
9.209685009427508

> <JCHEM_PKA_STRONGEST_BASIC>
-3.69994377685071

> <JCHEM_POLAR_SURFACE_AREA>
54.370000000000005

> <JCHEM_REFRACTIVITY>
85.57489999999997

> <JCHEM_ROTATABLE_BOND_COUNT>
0

> <JCHEM_RULE_OF_FIVE>
1

> <ALOGPS_SOLUBILITY>
5.78e-02 g/l

> <JCHEM_TRADITIONAL_IUPAC>
formestane

> <JCHEM_VEBER_RULE>
0

> <DRUGBANK_ID>
DB08905

> <DRUG_GROUPS>
approved; investigational; withdrawn

> <GENERIC_NAME>
Formestane

> <SYNONYMS>
4-hydroxy-4-androstene-3,17-dione; 4-Hydroxy-delta(4)-androstenedione; 4-hydroxy-Δ4-androstenedione; 4-hydroxyandrostenedione; 4-OH-A; 4-OHAD; Formestane; Formestano; Formestanum

> <PRODUCTS>
Lentaron

$$$$

  Mrv1718007061816082D          

 57  8  0  0  0  0            999 V2000
   -7.8375    5.7750    0.0000 Al  0  1  0  0  0  0  0  0  0  0  0  0
   -7.8375    2.4750    0.0000 Al  0  1  0  0  0  0  0  0  0  0  0  0
   -4.4196    5.7750    0.0000 Al  0  1  0  0  0  0  0  0  0  0  0  0
   -4.4196    2.4750    0.0000 Al  0  1  0  0  0  0  0  0  0  0  0  0
   -0.5303    4.1250    0.0000 Al  0  1  0  0  0  0  0  0  0  0  0  0
    2.5339    4.1250    0.0000 Mg  0  2  0  0  0  0  0  0  0  0  0  0
    5.5982    4.1250    0.0000 Mg  0  2  0  0  0  0  0  0  0  0  0  0
    8.6625    4.1250    0.0000 Mg  0  2  0  0  0  0  0  0  0  0  0  0
   -7.4250    0.8250    0.0000 Mg  0  2  0  0  0  0  0  0  0  0  0  0
   -4.3607    0.8250    0.0000 Mg  0  2  0  0  0  0  0  0  0  0  0  0
   -1.2964    0.8250    0.0000 Mg  0  2  0  0  0  0  0  0  0  0  0  0
    1.7678    0.8250    0.0000 Mg  0  2  0  0  0  0  0  0  0  0  0  0
    4.8321    0.8250    0.0000 Mg  0  2  0  0  0  0  0  0  0  0  0  0
    7.8964    0.8250    0.0000 Mg  0  2  0  0  0  0  0  0  0  0  0  0
   -7.4250   -0.8250    0.0000 Mg  0  2  0  0  0  0  0  0  0  0  0  0
   -7.8375    4.9500    0.0000 O   0  5  0  0  0  0  0  0  0  0  0  0
   -7.8375    3.3000    0.0000 O   0  5  0  0  0  0  0  0  0  0  0  0
   -8.6625    4.1250    0.0000 O   0  0  0  0  0  0  0  0  0  0  0  0
   -7.0125    4.1250    0.0000 O   0  0  0  0  0  0  0  0  0  0  0  0
   -7.8375    4.1250    0.0000 S   0  0  0  0  0  0  0  0  0  0  0  0
   -4.4196    4.9500    0.0000 O   0  5  0  0  0  0  0  0  0  0  0  0
   -4.4196    3.3000    0.0000 O   0  5  0  0  0  0  0  0  0  0  0  0
   -5.2446    4.1250    0.0000 O   0  0  0  0  0  0  0  0  0  0  0  0
   -3.5946    4.1250    0.0000 O   0  0  0  0  0  0  0  0  0  0  0  0
   -4.4196    4.1250    0.0000 S   0  0  0  0  0  0  0  0  0  0  0  0
   -1.3553    4.1250    0.0000 O   0  5  0  0  0  0  0  0  0  0  0  0
    1.7089    4.1250    0.0000 O   0  5  0  0  0  0  0  0  0  0  0  0
    4.7732    4.1250    0.0000 O   0  5  0  0  0  0  0  0  0  0  0  0
    7.8375    4.1250    0.0000 O   0  5  0  0  0  0  0  0  0  0  0  0
   -8.2500    0.8250    0.0000 O   0  5  0  0  0  0  0  0  0  0  0  0
   -5.1857    0.8250    0.0000 O   0  5  0  0  0  0  0  0  0  0  0  0
   -2.1214    0.8250    0.0000 O   0  5  0  0  0  0  0  0  0  0  0  0
    0.9428    0.8250    0.0000 O   0  5  0  0  0  0  0  0  0  0  0  0
    4.0071    0.8250    0.0000 O   0  5  0  0  0  0  0  0  0  0  0  0
    7.0714    0.8250    0.0000 O   0  5  0  0  0  0  0  0  0  0  0  0
   -8.2500   -0.8250    0.0000 O   0  5  0  0  0  0  0  0  0  0  0  0
   -5.0678   -0.8250    0.0000 O   0  5  0  0  0  0  0  0  0  0  0  0
   -3.9482   -0.8250    0.0000 O   0  5  0  0  0  0  0  0  0  0  0  0
   -2.8285   -0.8250    0.0000 O   0  5  0  0  0  0  0  0  0  0  0  0
   -1.7089   -0.8250    0.0000 O   0  5  0  0  0  0  0  0  0  0  0  0
   -0.5892   -0.8250    0.0000 O   0  5  0  0  0  0  0  0  0  0  0  0
   -7.8375   -2.4750    0.0000 O   0  5  0  0  0  0  0  0  0  0  0  0
   -6.7178   -2.4750    0.0000 O   0  5  0  0  0  0  0  0  0  0  0  0
   -5.5982   -2.4750    0.0000 O   0  5  0  0  0  0  0  0  0  0  0  0
   -4.4785   -2.4750    0.0000 O   0  5  0  0  0  0  0  0  0  0  0  0
   -3.3589   -2.4750    0.0000 O   0  5  0  0  0  0  0  0  0  0  0  0
   -2.2392   -2.4750    0.0000 O   0  5  0  0  0  0  0  0  0  0  0  0
   -7.8375   -4.1250    0.0000 O   0  5  0  0  0  0  0  0  0  0  0  0
   -6.7178   -4.1250    0.0000 O   0  5  0  0  0  0  0  0  0  0  0  0
   -5.5982   -4.1250    0.0000 O   0  5  0  0  0  0  0  0  0  0  0  0
   -4.4785   -4.1250    0.0000 O   0  5  0  0  0  0  0  0  0  0  0  0
   -3.3589   -4.1250    0.0000 O   0  5  0  0  0  0  0  0  0  0  0  0
   -2.2392   -4.1250    0.0000 O   0  5  0  0  0  0  0  0  0  0  0  0
   -7.8375   -5.7750    0.0000 O   0  5  0  0  0  0  0  0  0  0  0  0
   -6.7178   -5.7750    0.0000 O   0  5  0  0  0  0  0  0  0  0  0  0
   -5.5982   -5.7750    0.0000 O   0  5  0  0  0  0  0  0  0  0  0  0
   -3.2410   -5.7750    0.0000 O   0  0  0  0  0  0  0  0  0  0  0  0
 20 16  1  0  0  0  0
 20 17  1  0  0  0  0
 20 18  2  0  0  0  0
 20 19  2  0  0  0  0
 25 21  1  0  0  0  0
 25 22  1  0  0  0  0
 25 23  2  0  0  0  0
 25 24  2  0  0  0  0
M  CHG  8   1   3   2   3   3   3   4   3   5   3   6   2   7   2   8   2
M  CHG  8   9   2  10   2  11   2  12   2  13   2  14   2  15   2  16  -1
M  CHG  8  17  -1  21  -1  22  -1  26  -1  27  -1  28  -1  29  -1  30  -1
M  CHG  8  31  -1  32  -1  33  -1  34  -1  35  -1  36  -1  37  -1  38  -1
M  CHG  8  39  -1  40  -1  41  -1  42  -1  43  -1  44  -1  45  -1  46  -1
M  CHG  8  47  -1  48  -1  49  -1  50  -1  51  -1  52  -1  53  -1  54  -1
M  CHG  2  55  -1  56  -1
M  END
> <DATABASE_ID>
DB08938

> <DATABASE_NAME>
drugbank

> <SMILES>
O.[OH-].[OH-].[OH-].[OH-].[OH-].[OH-].[OH-].[OH-].[OH-].[OH-].[OH-].[OH-].[OH-].[OH-].[OH-].[OH-].[OH-].[OH-].[OH-].[OH-].[OH-].[OH-].[OH-].[OH-].[OH-].[OH-].[OH-].[OH-].[OH-].[OH-].[OH-].[Mg++].[Mg++].[Mg++].[Mg++].[Mg++].[Mg++].[Mg++].[Mg++].[Mg++].[Mg++].[Al+3].[Al+3].[Al+3].[Al+3].[Al+3].[O-]S([O-])(=O)=O.[O-]S([O-])(=O)=O

> <INCHI_IDENTIFIER>
InChI=1S/5Al.10Mg.2H2O4S.32H2O/c;;;;;;;;;;;;;;;2*1-5(2,3)4;;;;;;;;;;;;;;;;;;;;;;;;;;;;;;;;/h;;;;;;;;;;;;;;;2*(H2,1,2,3,4);32*1H2/q5*+3;10*+2;;;;;;;;;;;;;;;;;;;;;;;;;;;;;;;;;;/p-35

> <INCHI_KEY>
SPPNVMTVMQOKSC-UHFFFAOYSA-A

> <FORMULA>
Al5H33Mg10O40S2

> <MOLECULAR_WEIGHT>
1115.3

> <EXACT_MASS>
1111.7570627

> <JCHEM_ACCEPTOR_COUNT>
4

> <JCHEM_ATOM_COUNT>
90

> <JCHEM_AVERAGE_POLARIZABILITY>
5.805278247285028

> <JCHEM_BIOAVAILABILITY>
1

> <JCHEM_DONOR_COUNT>
0

> <JCHEM_FORMAL_CHARGE>
0

> <JCHEM_GHOSE_FILTER>
0

> <JCHEM_IUPAC>
pentaaluminium(3+) decamagnesium(2+) hydrate hentriacontahydroxide disulfate

> <JCHEM_LOGP>
-0.8415520233333333

> <JCHEM_MDDR_LIKE_RULE>
0

> <JCHEM_NUMBER_OF_RINGS>
0

> <JCHEM_PHYSIOLOGICAL_CHARGE>
-2

> <JCHEM_PKA>
1.8964254257138706

> <JCHEM_PKA_STRONGEST_ACIDIC>
-3.034349054191991

> <JCHEM_POLAR_SURFACE_AREA>
80.25999999999999

> <JCHEM_REFRACTIVITY>
11.5274

> <JCHEM_ROTATABLE_BOND_COUNT>
0

> <JCHEM_RULE_OF_FIVE>
0

> <JCHEM_TRADITIONAL_IUPAC>
pentaaluminium(3+) decamagnesium(2+) hydrate hentriacontahydroxide disulfate

> <JCHEM_VEBER_RULE>
0

> <DRUGBANK_ID>
DB08938

> <DRUG_GROUPS>
approved; withdrawn

> <GENERIC_NAME>
Magaldrate

> <SYNONYMS>
Aluminium magnesium hydroxide sulfate hydrate; Aluminum magnesium hydroxide sulfate hydrate; Aluminum magnesium hydroxide sulphate hydrate; Hydrate magnesium aluminate activated sulfate; Magaldrate; Magaldrato; Magaldratum; Magnesium aluminate hydrate; Monalium hydrate

> <PRODUCTS>
Riopan Chewable Tablets 480mg; Riopan Plus Sus; Riopan Plus Suspension; Riopan Plus Tablets; Riopan Sus 480mg/5ml; Riopan Suspension 480mg/5ml; Riopan Tab 480mg; Zantanol Tab.

> <INTERNATIONAL_BRANDS>
Almadrat T; Almagel T; Antashin; Bemolan; Cremag; Glysan; Lowsium; Magacid; Malugastrin; Riopan; Sanaflat

$$$$

  Mrv1652306111720432D          

 22 23  0  0  0  0            999 V2000
   -0.7144   -1.0312    0.0000 C   0  0  0  0  0  0  0  0  0  0  0  0
   -0.7144   -0.2062    0.0000 C   0  0  2  0  0  0  0  0  0  0  0  0
   -1.4289    0.2062    0.0000 C   0  0  0  0  0  0  0  0  0  0  0  0
   -2.1434   -0.2062    0.0000 O   0  0  0  0  0  0  0  0  0  0  0  0
   -2.8578    0.2062    0.0000 C   0  0  0  0  0  0  0  0  0  0  0  0
   -3.5723   -0.2062    0.0000 C   0  0  0  0  0  0  0  0  0  0  0  0
   -4.2868    0.2062    0.0000 C   0  0  0  0  0  0  0  0  0  0  0  0
   -4.2868    1.0312    0.0000 C   0  0  0  0  0  0  0  0  0  0  0  0
   -3.5723    1.4437    0.0000 C   0  0  0  0  0  0  0  0  0  0  0  0
   -2.8578    1.0312    0.0000 C   0  0  0  0  0  0  0  0  0  0  0  0
    0.0000    0.2062    0.0000 N   0  0  0  0  0  0  0  0  0  0  0  0
    0.7144   -0.2062    0.0000 C   0  0  2  0  0  0  0  0  0  0  0  0
    0.7144   -1.0312    0.0000 C   0  0  0  0  0  0  0  0  0  0  0  0
    1.4289    0.2062    0.0000 C   0  0  1  0  0  0  0  0  0  0  0  0
    1.4289    1.0312    0.0000 O   0  0  0  0  0  0  0  0  0  0  0  0
    2.1434   -0.2062    0.0000 C   0  0  0  0  0  0  0  0  0  0  0  0
    2.8578    0.2062    0.0000 C   0  0  0  0  0  0  0  0  0  0  0  0
    3.5723   -0.2062    0.0000 C   0  0  0  0  0  0  0  0  0  0  0  0
    3.5723   -1.0312    0.0000 C   0  0  0  0  0  0  0  0  0  0  0  0
    4.2868   -1.4437    0.0000 O   0  0  0  0  0  0  0  0  0  0  0  0
    2.8578   -1.4437    0.0000 C   0  0  0  0  0  0  0  0  0  0  0  0
    2.1434   -1.0312    0.0000 C   0  0  0  0  0  0  0  0  0  0  0  0
  2  1  1  6  0  0  0
  2  3  1  0  0  0  0
  3  4  1  0  0  0  0
  4  5  1  0  0  0  0
  5  6  2  0  0  0  0
  6  7  1  0  0  0  0
  7  8  2  0  0  0  0
  8  9  1  0  0  0  0
  9 10  2  0  0  0  0
  5 10  1  0  0  0  0
  2 11  1  0  0  0  0
 11 12  1  0  0  0  0
 12 13  1  1  0  0  0
 12 14  1  0  0  0  0
 14 15  1  1  0  0  0
 14 16  1  0  0  0  0
 16 17  2  0  0  0  0
 17 18  1  0  0  0  0
 18 19  2  0  0  0  0
 19 20  1  0  0  0  0
 19 21  1  0  0  0  0
 21 22  2  0  0  0  0
 16 22  1  0  0  0  0
M  END
> <DATABASE_ID>
DB08941

> <DATABASE_NAME>
drugbank

> <SMILES>
C[C@H](COC1=CC=CC=C1)N[C@H](C)[C@@H](O)C1=CC=C(O)C=C1

> <INCHI_IDENTIFIER>
InChI=1S/C18H23NO3/c1-13(12-22-17-6-4-3-5-7-17)19-14(2)18(21)15-8-10-16(20)11-9-15/h3-11,13-14,18-21H,12H2,1-2H3/t13-,14-,18-/m1/s1

> <INCHI_KEY>
BMUKKTUHUDJSNZ-HBUWYVDXSA-N

> <FORMULA>
C18H23NO3

> <MOLECULAR_WEIGHT>
301.386

> <EXACT_MASS>
301.167793605

> <JCHEM_ACCEPTOR_COUNT>
4

> <JCHEM_ATOM_COUNT>
45

> <JCHEM_AVERAGE_POLARIZABILITY>
34.11587475759513

> <JCHEM_BIOAVAILABILITY>
1

> <JCHEM_DONOR_COUNT>
3

> <JCHEM_FORMAL_CHARGE>
0

> <JCHEM_GHOSE_FILTER>
1

> <JCHEM_IUPAC>
4-[(1S,2R)-1-hydroxy-2-{[(2R)-1-phenoxypropan-2-yl]amino}propyl]phenol

> <ALOGPS_LOGP>
2.06

> <JCHEM_LOGP>
2.5646005130617846

> <ALOGPS_LOGS>
-3.77

> <JCHEM_MDDR_LIKE_RULE>
0

> <JCHEM_NUMBER_OF_RINGS>
2

> <JCHEM_PHYSIOLOGICAL_CHARGE>
1

> <JCHEM_PKA>
14.029563160093545

> <JCHEM_PKA_STRONGEST_ACIDIC>
9.651482674333462

> <JCHEM_PKA_STRONGEST_BASIC>
8.997586357485336

> <JCHEM_POLAR_SURFACE_AREA>
61.72

> <JCHEM_REFRACTIVITY>
86.6392

> <JCHEM_ROTATABLE_BOND_COUNT>
7

> <JCHEM_RULE_OF_FIVE>
1

> <ALOGPS_SOLUBILITY>
5.07e-02 g/l

> <JCHEM_TRADITIONAL_IUPAC>
4-[(1S,2R)-1-hydroxy-2-{[(2R)-1-phenoxypropan-2-yl]amino}propyl]phenol

> <JCHEM_VEBER_RULE>
0

> <DRUGBANK_ID>
DB08941

> <DRUG_GROUPS>
approved; withdrawn

> <GENERIC_NAME>
Isoxsuprine

> <SYNONYMS>
Isoxsuprine

> <PRODUCTS>
Isoxsuprine Hydrochloride; Vasodilan

> <SALTS>
Isoxsuprine hydrochloride

$$$$

  Mrv1909 12311917082D          

 23 25  0  0  0  0            999 V2000
   -1.0266   -1.3885    0.0000 S   0  0  0  0  0  0  0  0  0  0  0  0
   -0.3088   -0.9817    0.0000 N   0  0  0  0  0  0  0  0  0  0  0  0
   -0.3088   -0.1683    0.0000 C   0  0  0  0  0  0  0  0  0  0  0  0
   -1.0266    0.2384    0.0000 C   0  0  0  0  0  0  0  0  0  0  0  0
    0.4328    0.2623    0.0000 C   0  0  0  0  0  0  0  0  0  0  0  0
   -1.7204   -0.9817    0.0000 C   0  0  0  0  0  0  0  0  0  0  0  0
   -1.7204   -0.1683    0.0000 C   0  0  0  0  0  0  0  0  0  0  0  0
    1.8772    0.2351    0.0000 C   0  0  0  0  0  0  0  0  0  0  0  0
    1.1506   -0.1683    0.0000 N   0  0  0  0  0  0  0  0  0  0  0  0
    2.6668   -0.0225    0.0000 N   0  0  0  0  0  0  0  0  0  0  0  0
    1.8783    1.0656    0.0000 C   0  0  0  0  0  0  0  0  0  0  0  0
    3.1559    0.6487    0.0000 O   0  0  0  0  0  0  0  0  0  0  0  0
    2.6685    1.3213    0.0000 C   0  0  0  0  0  0  0  0  0  0  0  0
    0.4328    1.0758    0.0000 O   0  0  0  0  0  0  0  0  0  0  0  0
   -1.0266    1.0758    0.0000 O   0  0  0  0  0  0  0  0  0  0  0  0
    0.4328   -1.4124    0.0000 C   0  0  0  0  0  0  0  0  0  0  0  0
   -2.4382    0.2384    0.0000 C   0  0  0  0  0  0  0  0  0  0  0  0
   -2.4382   -1.3885    0.0000 C   0  0  0  0  0  0  0  0  0  0  0  0
    2.9262    2.1108    0.0000 C   0  0  0  0  0  0  0  0  0  0  0  0
   -3.1559   -0.1683    0.0000 C   0  0  0  0  0  0  0  0  0  0  0  0
   -3.1559   -0.9817    0.0000 C   0  0  0  0  0  0  0  0  0  0  0  0
   -0.6166   -2.1108    0.0000 O   0  0  0  0  0  0  0  0  0  0  0  0
   -1.4471   -2.1108    0.0000 O   0  0  0  0  0  0  0  0  0  0  0  0
  2  1  1  0  0  0  0
  6  1  1  0  0  0  0
  3  2  1  0  0  0  0
 16  2  1  0  0  0  0
  5  3  1  0  0  0  0
  4  3  2  0  0  0  0
  7  4  1  0  0  0  0
 15  4  1  0  0  0  0
  9  5  1  0  0  0  0
 14  5  2  0  0  0  0
  7  6  2  0  0  0  0
 18  6  1  0  0  0  0
 17  7  1  0  0  0  0
  9  8  1  0  0  0  0
 10  8  2  0  0  0  0
 11  8  1  0  0  0  0
 12 10  1  0  0  0  0
 13 11  2  0  0  0  0
 13 12  1  0  0  0  0
 19 13  1  0  0  0  0
 20 17  2  0  0  0  0
 21 18  2  0  0  0  0
 21 20  1  0  0  0  0
 22  1  2  0  0  0  0
 23  1  2  0  0  0  0
M  END
> <DATABASE_ID>
DB08942

> <DATABASE_NAME>
drugbank

> <SMILES>
CN1C(C(=O)NC2=NOC(C)=C2)=C(O)C2=C(C=CC=C2)S1(=O)=O

> <INCHI_IDENTIFIER>
InChI=1S/C14H13N3O5S/c1-8-7-11(16-22-8)15-14(19)12-13(18)9-5-3-4-6-10(9)23(20,21)17(12)2/h3-7,18H,1-2H3,(H,15,16,19)

> <INCHI_KEY>
YYUAYBYLJSNDCX-UHFFFAOYSA-N

> <FORMULA>
C14H13N3O5S

> <MOLECULAR_WEIGHT>
335.335

> <EXACT_MASS>
335.057591231

> <JCHEM_ACCEPTOR_COUNT>
5

> <JCHEM_ATOM_COUNT>
36

> <JCHEM_AVERAGE_NEUTRAL_MICROSPECIES_CHARGE>
-1.0139605858729315

> <JCHEM_AVERAGE_POLARIZABILITY>
32.37672360453193

> <JCHEM_BIOAVAILABILITY>
1

> <JCHEM_DONOR_COUNT>
2

> <JCHEM_FORMAL_CHARGE>
0

> <JCHEM_GHOSE_FILTER>
1

> <JCHEM_IUPAC>
4-hydroxy-2-methyl-N-(5-methyl-1,2-oxazol-3-yl)-1,1-dioxo-2H-1lambda6,2-benzothiazine-3-carboxamide

> <ALOGPS_LOGP>
2.61

> <JCHEM_LOGP>
0.7702420186666668

> <ALOGPS_LOGS>
-3.20

> <JCHEM_MDDR_LIKE_RULE>
0

> <JCHEM_NEUTRAL_CHARGE>
-1

> <JCHEM_NUMBER_OF_RINGS>
3

> <JCHEM_PHYSIOLOGICAL_CHARGE>
-1

> <JCHEM_PKA>
8.782207816455848

> <JCHEM_PKA_STRONGEST_ACIDIC>
4.359632535325906

> <JCHEM_PKA_STRONGEST_BASIC>
-0.7081395142581024

> <JCHEM_POLAR_SURFACE_AREA>
112.73999999999998

> <JCHEM_REFRACTIVITY>
85.7921

> <JCHEM_ROTATABLE_BOND_COUNT>
2

> <JCHEM_RULE_OF_FIVE>
1

> <ALOGPS_SOLUBILITY>
2.13e-01 g/l

> <JCHEM_TRADITIONAL_IUPAC>
agmatine

> <JCHEM_VEBER_RULE>
0

> <DRUGBANK_ID>
DB08942

> <DRUG_GROUPS>
approved; withdrawn

> <GENERIC_NAME>
Isoxicam

> <SYNONYMS>
Isoxicam; Isoxicamo; Isoxicamum

> <INTERNATIONAL_BRANDS>
Maxicam

$$$$

  Mrv1652306111720452D          

 18 18  0  0  0  0            999 V2000
   -0.2062   -0.8250    0.0000 C   0  0  0  0  0  0  0  0  0  0  0  0
   -0.2062    0.0000    0.0000 C   0  0  1  0  0  0  0  0  0  0  0  0
   -0.2062    0.8250    0.0000 C   0  0  0  0  0  0  0  0  0  0  0  0
    0.5082    1.2375    0.0000 C   0  0  1  0  0  0  0  0  0  0  0  0
    0.5082    2.0625    0.0000 N   0  0  0  0  0  0  0  0  0  0  0  0
   -0.2062    2.4750    0.0000 C   0  0  0  0  0  0  0  0  0  0  0  0
    1.2226    2.4750    0.0000 C   0  0  0  0  0  0  0  0  0  0  0  0
    1.2226    0.8250    0.0000 C   0  0  0  0  0  0  0  0  0  0  0  0
   -1.0312    0.0000    0.0000 C   0  0  0  0  0  0  0  0  0  0  0  0
   -1.4437    0.7144    0.0000 C   0  0  0  0  0  0  0  0  0  0  0  0
   -1.4437   -0.7144    0.0000 C   0  0  0  0  0  0  0  0  0  0  0  0
    0.6187    0.0000    0.0000 C   0  0  0  0  0  0  0  0  0  0  0  0
    1.4437    0.0000    0.0000 N   0  0  0  0  0  0  0  0  0  0  0  0
    0.5082   -1.2375    0.0000 C   0  0  0  0  0  0  0  0  0  0  0  0
    0.5082   -2.0625    0.0000 C   0  0  0  0  0  0  0  0  0  0  0  0
   -0.2062   -2.4750    0.0000 C   0  0  0  0  0  0  0  0  0  0  0  0
   -0.9207   -2.0625    0.0000 C   0  0  0  0  0  0  0  0  0  0  0  0
   -0.9207   -1.2375    0.0000 C   0  0  0  0  0  0  0  0  0  0  0  0
  1  2  1  0  0  0  0
  2  3  1  6  0  0  0
  3  4  1  0  0  0  0
  4  5  1  0  0  0  0
  5  6  1  0  0  0  0
  5  7  1  0  0  0  0
  4  8  1  1  0  0  0
  2  9  1  0  0  0  0
  9 10  1  0  0  0  0
  9 11  1  0  0  0  0
  2 12  1  1  0  0  0
 12 13  3  0  0  0  0
  1 14  2  0  0  0  0
 14 15  1  0  0  0  0
 15 16  2  0  0  0  0
 16 17  1  0  0  0  0
 17 18  2  0  0  0  0
  1 18  1  0  0  0  0
M  END
> <DATABASE_ID>
DB08944

> <DATABASE_NAME>
drugbank

> <SMILES>
CC(C)[C@@](C[C@H](C)N(C)C)(C#N)C1=CC=CC=C1

> <INCHI_IDENTIFIER>
InChI=1S/C16H24N2/c1-13(2)16(12-17,11-14(3)18(4)5)15-9-7-6-8-10-15/h6-10,13-14H,11H2,1-5H3/t14-,16+/m0/s1

> <INCHI_KEY>
WFLSCFISQHLEED-GOEBONIOSA-N

> <FORMULA>
C16H24N2

> <MOLECULAR_WEIGHT>
244.382

> <EXACT_MASS>
244.193948781

> <JCHEM_ACCEPTOR_COUNT>
2

> <JCHEM_ATOM_COUNT>
42

> <JCHEM_AVERAGE_POLARIZABILITY>
29.30550421534086

> <JCHEM_BIOAVAILABILITY>
1

> <JCHEM_DONOR_COUNT>
0

> <JCHEM_FORMAL_CHARGE>
0

> <JCHEM_GHOSE_FILTER>
1

> <JCHEM_IUPAC>
(2R,4S)-4-(dimethylamino)-2-phenyl-2-(propan-2-yl)pentanenitrile

> <ALOGPS_LOGP>
3.44

> <JCHEM_LOGP>
3.6327429209999997

> <ALOGPS_LOGS>
-3.56

> <JCHEM_MDDR_LIKE_RULE>
0

> <JCHEM_NUMBER_OF_RINGS>
1

> <JCHEM_PHYSIOLOGICAL_CHARGE>
1

> <JCHEM_PKA_STRONGEST_BASIC>
8.72951902017234

> <JCHEM_POLAR_SURFACE_AREA>
27.03

> <JCHEM_REFRACTIVITY>
77.24530000000001

> <JCHEM_ROTATABLE_BOND_COUNT>
5

> <JCHEM_RULE_OF_FIVE>
1

> <ALOGPS_SOLUBILITY>
6.72e-02 g/l

> <JCHEM_TRADITIONAL_IUPAC>
(2R,4S)-4-(dimethylamino)-2-isopropyl-2-phenylpentanenitrile

> <JCHEM_VEBER_RULE>
1

> <DRUGBANK_ID>
DB08944

> <DRUG_GROUPS>
approved; withdrawn

> <GENERIC_NAME>
Isoaminile

> <INTERNATIONAL_BRANDS>
Peracon

> <SALTS>
Isoaminile citrate; Isoaminile cyclamate

$$$$

  Mrv1909 01152004412D          

 39 40  0  0  0  0            999 V2000
   -5.0197   -0.5169    0.0000 C   0  0  0  0  0  0  0  0  0  0  0  0
   -5.0197    0.2908    0.0000 C   0  0  0  0  0  0  0  0  0  0  0  0
   -5.7345   -0.9287    0.0000 C   0  0  0  0  0  0  0  0  0  0  0  0
   -4.3090   -0.9530    0.0000 N   0  0  0  0  0  0  0  0  0  0  0  0
   -5.7345    0.7269    0.0000 C   0  0  0  0  0  0  0  0  0  0  0  0
   -4.3090    0.7269    0.0000 I   0  0  0  0  0  0  0  0  0  0  0  0
   -6.4573   -0.4966    0.0000 C   0  0  0  0  0  0  0  0  0  0  0  0
   -5.7345   -1.7566    0.0000 I   0  0  0  0  0  0  0  0  0  0  0  0
   -3.5902   -0.5493    0.0000 C   0  0  0  0  0  0  0  0  0  0  0  0
   -6.4573    0.3270    0.0000 C   0  0  0  0  0  0  0  0  0  0  0  0
   -5.7345    1.5507    0.0000 C   0  0  0  0  0  0  0  0  0  0  0  0
   -2.8713   -0.9812    0.0000 C   0  0  0  0  0  0  0  0  0  0  0  0
   -3.5902    0.2624    0.0000 O   0  0  0  0  0  0  0  0  0  0  0  0
   -7.1883    0.7835    0.0000 I   0  0  0  0  0  0  0  0  0  0  0  0
   -5.0197    1.9546    0.0000 O   0  0  0  0  0  0  0  0  0  0  0  0
   -6.4573    1.9546    0.0000 O   0  0  0  0  0  0  0  0  0  0  0  0
   -2.1525   -0.5775    0.0000 O   0  0  0  0  0  0  0  0  0  0  0  0
   -1.4336   -1.0096    0.0000 C   0  0  0  0  0  0  0  0  0  0  0  0
   -0.7228   -0.6138    0.0000 C   0  0  0  0  0  0  0  0  0  0  0  0
    0.0000   -1.0378    0.0000 O   0  0  0  0  0  0  0  0  0  0  0  0
    0.7147   -0.6461    0.0000 C   0  0  0  0  0  0  0  0  0  0  0  0
    1.4376   -1.0741    0.0000 C   0  0  0  0  0  0  0  0  0  0  0  0
    2.1525   -0.6622    0.0000 O   0  0  0  0  0  0  0  0  0  0  0  0
    2.8672   -1.0903    0.0000 C   0  0  0  0  0  0  0  0  0  0  0  0
    3.5860   -0.6946    0.0000 C   0  0  0  0  0  0  0  0  0  0  0  0
    4.3049   -1.1267    0.0000 N   0  0  0  0  0  0  0  0  0  0  0  0
    3.5860    0.1171    0.0000 O   0  0  0  0  0  0  0  0  0  0  0  0
    5.0360   -0.7228    0.0000 C   0  0  0  0  0  0  0  0  0  0  0  0
    5.0360    0.0888    0.0000 C   0  0  0  0  0  0  0  0  0  0  0  0
    5.7546   -1.1267    0.0000 C   0  0  0  0  0  0  0  0  0  0  0  0
    5.7546    0.5209    0.0000 C   0  0  0  0  0  0  0  0  0  0  0  0
    4.3049    0.5209    0.0000 I   0  0  0  0  0  0  0  0  0  0  0  0
    6.4735   -0.7228    0.0000 C   0  0  0  0  0  0  0  0  0  0  0  0
    5.7546   -1.9546    0.0000 I   0  0  0  0  0  0  0  0  0  0  0  0
    6.4735    0.0888    0.0000 C   0  0  0  0  0  0  0  0  0  0  0  0
    5.7546    1.3609    0.0000 C   0  0  0  0  0  0  0  0  0  0  0  0
    7.1883    0.5209    0.0000 I   0  0  0  0  0  0  0  0  0  0  0  0
    6.4735    1.7566    0.0000 O   0  0  0  0  0  0  0  0  0  0  0  0
    5.0360    1.7566    0.0000 O   0  0  0  0  0  0  0  0  0  0  0  0
  1  2  1  0  0  0  0
  1  3  2  0  0  0  0
  1  4  1  0  0  0  0
  2  5  2  0  0  0  0
  2  6  1  0  0  0  0
  3  7  1  0  0  0  0
  3  8  1  0  0  0  0
  4  9  1  0  0  0  0
  5 10  1  0  0  0  0
  5 11  1  0  0  0  0
  9 12  1  0  0  0  0
  9 13  2  0  0  0  0
 10 14  1  0  0  0  0
 11 15  1  0  0  0  0
 11 16  2  0  0  0  0
 12 17  1  0  0  0  0
 17 18  1  0  0  0  0
 18 19  1  0  0  0  0
 19 20  1  0  0  0  0
 20 21  1  0  0  0  0
 21 22  1  0  0  0  0
 22 23  1  0  0  0  0
 23 24  1  0  0  0  0
 24 25  1  0  0  0  0
 25 26  1  0  0  0  0
 25 27  2  0  0  0  0
 26 28  1  0  0  0  0
 28 29  2  0  0  0  0
 28 30  1  0  0  0  0
 29 31  1  0  0  0  0
 29 32  1  0  0  0  0
 30 33  2  0  0  0  0
 30 34  1  0  0  0  0
 31 35  2  0  0  0  0
 31 36  1  0  0  0  0
 35 37  1  0  0  0  0
 36 38  1  0  0  0  0
 36 39  2  0  0  0  0
  7 10  2  0  0  0  0
 33 35  1  0  0  0  0
M  END
> <DATABASE_ID>
DB08945

> <DATABASE_NAME>
drugbank

> <SMILES>
OC(=O)C1=C(I)C(NC(=O)COCCOCCOCC(=O)NC2=C(I)C(C(O)=O)=C(I)C=C2I)=C(I)C=C1I

> <INCHI_IDENTIFIER>
InChI=1S/C22H18I6N2O9/c23-9-5-11(25)19(17(27)15(9)21(33)34)29-13(31)7-38-3-1-37-2-4-39-8-14(32)30-20-12(26)6-10(24)16(18(20)28)22(35)36/h5-6H,1-4,7-8H2,(H,29,31)(H,30,32)(H,33,34)(H,35,36)

> <INCHI_KEY>
JXMIBUGMYLQZGO-UHFFFAOYSA-N

> <FORMULA>
C22H18I6N2O9

> <MOLECULAR_WEIGHT>
1215.8131

> <EXACT_MASS>
1215.528040704

> <JCHEM_ACCEPTOR_COUNT>
9

> <JCHEM_ATOM_COUNT>
57

> <JCHEM_AVERAGE_NEUTRAL_MICROSPECIES_CHARGE>
-0.011432996878811968

> <JCHEM_AVERAGE_POLARIZABILITY>
77.5337462897516

> <JCHEM_BIOAVAILABILITY>
0

> <JCHEM_DONOR_COUNT>
4

> <JCHEM_FORMAL_CHARGE>
0

> <JCHEM_GHOSE_FILTER>
0

> <JCHEM_IUPAC>
3-{2-[2-(2-{[(3-carboxy-2,4,6-triiodophenyl)carbamoyl]methoxy}ethoxy)ethoxy]acetamido}-2,4,6-triiodobenzoic acid

> <ALOGPS_LOGP>
3.42

> <JCHEM_LOGP>
6.744001516333332

> <ALOGPS_LOGS>
-5.41

> <JCHEM_MDDR_LIKE_RULE>
0

> <JCHEM_NEUTRAL_CHARGE>
-2

> <JCHEM_NUMBER_OF_RINGS>
2

> <JCHEM_PHYSIOLOGICAL_CHARGE>
-2

> <JCHEM_PKA>
2.6269833994945695

> <JCHEM_PKA_STRONGEST_ACIDIC>
2.024923681496313

> <JCHEM_PKA_STRONGEST_BASIC>
-3.876310637171328

> <JCHEM_POLAR_SURFACE_AREA>
160.49

> <JCHEM_REFRACTIVITY>
198.51069999999999

> <JCHEM_ROTATABLE_BOND_COUNT>
14

> <JCHEM_RULE_OF_FIVE>
0

> <ALOGPS_SOLUBILITY>
4.70e-03 g/l

> <JCHEM_TRADITIONAL_IUPAC>
iotroxic acid

> <JCHEM_VEBER_RULE>
0

> <DRUGBANK_ID>
DB08945

> <DRUG_GROUPS>
experimental; withdrawn

> <GENERIC_NAME>
Iotroxic acid

> <SYNONYMS>
Acide iotroxique; Acido iotroxico; Acidum iotroxicum; Iotroxic acid; Iotroxinsaeure

> <INTERNATIONAL_BRANDS>
Biliscopin; Biliscopin DIC

> <SALTS>
Iotroxate meglumine

$$$$

  Mrv0541 05271409282D          

 17 17  0  0  0  0            999 V2000
   -2.1434   -0.4125    0.0000 C   0  0  0  0  0  0  0  0  0  0  0  0
   -1.4289    0.0000    0.0000 C   0  0  0  0  0  0  0  0  0  0  0  0
   -0.7144    1.2375    0.0000 C   0  0  0  0  0  0  0  0  0  0  0  0
    1.4289    0.8250    0.0000 C   0  0  0  0  0  0  0  0  0  0  0  0
   -1.4289    0.8250    0.0000 C   0  0  0  0  0  0  0  0  0  0  0  0
    0.0000    0.8250    0.0000 C   0  0  0  0  0  0  0  0  0  0  0  0
    0.7144    1.2375    0.0000 C   0  0  0  0  0  0  0  0  0  0  0  0
    1.4289    0.0000    0.0000 C   0  0  0  0  0  0  0  0  0  0  0  0
    0.0000    0.0000    0.0000 C   0  0  0  0  0  0  0  0  0  0  0  0
    0.7144   -0.4125    0.0000 C   0  0  0  0  0  0  0  0  0  0  0  0
   -2.1434    1.2375    0.0000 C   0  0  0  0  0  0  0  0  0  0  0  0
    0.7144    2.0625    0.0000 I   0  0  0  0  0  0  0  0  0  0  0  0
    2.1434   -0.4125    0.0000 I   0  0  0  0  0  0  0  0  0  0  0  0
   -0.7144   -0.4125    0.0000 I   0  0  0  0  0  0  0  0  0  0  0  0
    0.7144   -1.2375    0.0000 N   0  0  0  0  0  0  0  0  0  0  0  0
   -2.1434    2.0625    0.0000 O   0  0  0  0  0  0  0  0  0  0  0  0
   -2.8578    0.8250    0.0000 O   0  0  0  0  0  0  0  0  0  0  0  0
  2  1  1  0  0  0  0
  5  2  1  0  0  0  0
  5  3  1  0  0  0  0
  6  3  1  0  0  0  0
  7  4  2  0  0  0  0
  7  6  1  0  0  0  0
  8  4  1  0  0  0  0
  9  6  2  0  0  0  0
 10  8  2  0  0  0  0
 10  9  1  0  0  0  0
 11  5  1  0  0  0  0
 12  7  1  0  0  0  0
 13  8  1  0  0  0  0
 14  9  1  0  0  0  0
 15 10  1  0  0  0  0
 16 11  2  0  0  0  0
 17 11  1  0  0  0  0
M  END
> <DATABASE_ID>
DB08946

> <DATABASE_NAME>
drugbank

> <SMILES>
CCC(CC1=C(I)C(N)=C(I)C=C1I)C(O)=O

> <INCHI_IDENTIFIER>
InChI=1S/C11H12I3NO2/c1-2-5(11(16)17)3-6-7(12)4-8(13)10(15)9(6)14/h4-5H,2-3,15H2,1H3,(H,16,17)

> <INCHI_KEY>
OIRFJRBSRORBCM-UHFFFAOYSA-N

> <FORMULA>
C11H12I3NO2

> <MOLECULAR_WEIGHT>
570.9319

> <EXACT_MASS>
570.800208893

> <JCHEM_ACCEPTOR_COUNT>
3

> <JCHEM_AVERAGE_POLARIZABILITY>
36.914839525546824

> <JCHEM_BIOAVAILABILITY>
1

> <JCHEM_DONOR_COUNT>
2

> <JCHEM_FORMAL_CHARGE>
0

> <JCHEM_GHOSE_FILTER>
0

> <JCHEM_IUPAC>
2-[(3-amino-2,4,6-triiodophenyl)methyl]butanoic acid

> <ALOGPS_LOGP>
3.93

> <JCHEM_LOGP>
4.578601728785412

> <ALOGPS_LOGS>
-4.62

> <JCHEM_MDDR_LIKE_RULE>
0

> <JCHEM_NUMBER_OF_RINGS>
1

> <JCHEM_PHYSIOLOGICAL_CHARGE>
-1

> <JCHEM_PKA>
19.252301713431148

> <JCHEM_PKA_STRONGEST_ACIDIC>
2.854922641229148

> <JCHEM_PKA_STRONGEST_BASIC>
1.7640419437609438

> <JCHEM_POLAR_SURFACE_AREA>
63.32000000000001

> <JCHEM_REFRACTIVITY>
95.93

> <JCHEM_ROTATABLE_BOND_COUNT>
4

> <JCHEM_RULE_OF_FIVE>
0

> <ALOGPS_SOLUBILITY>
1.38e-02 g/l

> <JCHEM_TRADITIONAL_IUPAC>
iopanoic acid

> <JCHEM_VEBER_RULE>
0

> <DRUGBANK_ID>
DB08946

> <DRUG_GROUPS>
approved; withdrawn

> <GENERIC_NAME>
Iopanoic acid

> <SYNONYMS>
Acidum iopanoicum; Iodopanoic acid

> <PRODUCTS>
Telepaque - Tablet - 500mg; Telepaque Tab; Telepaque Tab 500mg

> <INTERNATIONAL_BRANDS>
Colegraf

$$$$

  Mrv1909 01152004442D          

 21 21  0  0  0  0            999 V2000
    1.0718    1.2376    0.0000 C   0  0  0  0  0  0  0  0  0  0  0  0
    0.3573    1.6500    0.0000 C   0  0  0  0  0  0  0  0  0  0  0  0
    1.0720    0.4125    0.0000 C   0  0  0  0  0  0  0  0  0  0  0  0
    1.7863    1.6503    0.0000 C   0  0  0  0  0  0  0  0  0  0  0  0
   -0.3571    1.2374    0.0000 C   0  0  0  0  0  0  0  0  0  0  0  0
    0.3571    2.4751    0.0000 I   0  0  0  0  0  0  0  0  0  0  0  0
    0.3574    0.0000    0.0000 C   0  0  0  0  0  0  0  0  0  0  0  0
    1.7865    0.0002    0.0000 I   0  0  0  0  0  0  0  0  0  0  0  0
    1.7863    2.4752    0.0000 O   0  0  0  0  0  0  0  0  0  0  0  0
    2.5008    1.2377    0.0000 O   0  0  0  0  0  0  0  0  0  0  0  0
   -0.3571    0.4125    0.0000 C   0  0  0  0  0  0  0  0  0  0  0  0
   -1.0718    1.6500    0.0000 N   0  0  0  0  0  0  0  0  0  0  0  0
    0.3575   -0.8250    0.0000 C   0  0  0  0  0  0  0  0  0  0  0  0
   -1.0717   -0.0001    0.0000 I   0  0  0  0  0  0  0  0  0  0  0  0
   -1.7862    1.2374    0.0000 C   0  0  0  0  0  0  0  0  0  0  0  0
   -0.3569   -1.2375    0.0000 N   0  0  0  0  0  0  0  0  0  0  0  0
   -1.7862    0.4124    0.0000 O   0  0  0  0  0  0  0  0  0  0  0  0
   -2.5008    1.6500    0.0000 C   0  0  0  0  0  0  0  0  0  0  0  0
   -0.3568   -2.0628    0.0000 C   0  0  0  0  0  0  0  0  0  0  0  0
   -1.0714   -2.4752    0.0000 O   0  0  0  0  0  0  0  0  0  0  0  0
    0.3577   -2.4751    0.0000 C   0  0  0  0  0  0  0  0  0  0  0  0
  1  2  1  0  0  0  0
  1  3  2  0  0  0  0
  1  4  1  0  0  0  0
  2  5  2  0  0  0  0
  2  6  1  0  0  0  0
  3  7  1  0  0  0  0
  3  8  1  0  0  0  0
  4  9  2  0  0  0  0
  4 10  1  0  0  0  0
  5 11  1  0  0  0  0
  5 12  1  0  0  0  0
  7 11  2  0  0  0  0
  7 13  1  0  0  0  0
 11 14  1  0  0  0  0
 12 15  1  0  0  0  0
 13 16  1  0  0  0  0
 15 17  2  0  0  0  0
 15 18  1  0  0  0  0
 16 19  1  0  0  0  0
 19 20  2  0  0  0  0
 19 21  1  0  0  0  0
M  END
> <DATABASE_ID>
DB08948

> <DATABASE_NAME>
drugbank

> <SMILES>
CC(=O)NCC1=C(I)C(NC(C)=O)=C(I)C(C(O)=O)=C1I

> <INCHI_IDENTIFIER>
InChI=1S/C12H11I3N2O4/c1-4(18)16-3-6-8(13)7(12(20)21)10(15)11(9(6)14)17-5(2)19/h3H2,1-2H3,(H,16,18)(H,17,19)(H,20,21)

> <INCHI_KEY>
VVDGWALACJEJKG-UHFFFAOYSA-N

> <FORMULA>
C12H11I3N2O4

> <MOLECULAR_WEIGHT>
627.9402

> <EXACT_MASS>
627.78528711

> <JCHEM_ACCEPTOR_COUNT>
4

> <JCHEM_ATOM_COUNT>
32

> <JCHEM_AVERAGE_NEUTRAL_MICROSPECIES_CHARGE>
-0.9999868305074596

> <JCHEM_AVERAGE_POLARIZABILITY>
40.778263338197725

> <JCHEM_BIOAVAILABILITY>
1

> <JCHEM_DONOR_COUNT>
3

> <JCHEM_FORMAL_CHARGE>
0

> <JCHEM_GHOSE_FILTER>
0

> <JCHEM_IUPAC>
3-acetamido-5-(acetamidomethyl)-2,4,6-triiodobenzoic acid

> <ALOGPS_LOGP>
2.55

> <JCHEM_LOGP>
2.599987565333333

> <ALOGPS_LOGS>
-4.04

> <JCHEM_MDDR_LIKE_RULE>
0

> <JCHEM_NEUTRAL_CHARGE>
-1

> <JCHEM_NUMBER_OF_RINGS>
1

> <JCHEM_PHYSIOLOGICAL_CHARGE>
-1

> <JCHEM_PKA>
12.238165019932513

> <JCHEM_PKA_STRONGEST_ACIDIC>
2.2790447628817643

> <JCHEM_PKA_STRONGEST_BASIC>
-1.755975999019365

> <JCHEM_POLAR_SURFACE_AREA>
95.5

> <JCHEM_REFRACTIVITY>
106.1819

> <JCHEM_ROTATABLE_BOND_COUNT>
4

> <JCHEM_RULE_OF_FIVE>
0

> <ALOGPS_SOLUBILITY>
5.77e-02 g/l

> <JCHEM_TRADITIONAL_IUPAC>
iotroxic acid

> <JCHEM_VEBER_RULE>
0

> <DRUGBANK_ID>
DB08948

> <DRUG_GROUPS>
withdrawn

> <GENERIC_NAME>
Iodamide

> <SYNONYMS>
Ametriiodic acid; Ametriiodinic acid; Ametriodinic acid; Iodamida; Iodamide; Iodamidum; Urombrine

> <INTERNATIONAL_BRANDS>
Angiomiron; Jodomiron; Renovue; Uromiro; Uromiron

> <SALTS>
Iodamide meglumine

$$$$

  Mrv1652306061722112D          

 60 66  0  0  0  0            999 V2000
    0.7144   -0.4125    0.0000 C   0  0  1  0  0  0  0  0  0  0  0  0
    0.0000   -0.8250    0.0000 C   0  0  1  0  0  0  0  0  0  0  0  0
   -0.7145   -0.4125    0.0000 C   0  0  2  0  0  0  0  0  0  0  0  0
   -0.7145    0.4125    0.0000 C   0  0  1  0  0  0  0  0  0  0  0  0
    0.0000    0.8249    0.0000 C   0  0  2  0  0  0  0  0  0  0  0  0
    0.7144    0.4125    0.0000 C   0  0  1  0  0  0  0  0  0  0  0  0
    0.0000    1.6500    0.0000 O   0  0  0  0  0  0  0  0  0  0  0  0
    1.4289    0.8249    0.0000 O   0  0  0  0  0  0  0  0  0  0  0  0
    0.0000   -1.6500    0.0000 O   0  0  0  0  0  0  0  0  0  0  0  0
   -1.4289   -0.8250    0.0000 O   0  0  0  0  0  0  0  0  0  0  0  0
    1.4289   -0.8250    0.0000 O   0  0  0  0  0  0  0  0  0  0  0  0
   -1.4289    0.8249    0.0000 O   0  0  0  0  0  0  0  0  0  0  0  0
    1.4289    4.1251    0.0000 N   0  0  0  0  0  0  0  0  0  0  0  0
    1.4289    3.3000    0.0000 C   0  0  0  0  0  0  0  0  0  0  0  0
    0.7144    2.8875    0.0000 C   0  0  0  0  0  0  0  0  0  0  0  0
    0.0000    3.3000    0.0000 C   0  0  0  0  0  0  0  0  0  0  0  0
    0.0000    4.1251    0.0000 C   0  0  0  0  0  0  0  0  0  0  0  0
    0.7144    4.5376    0.0000 C   0  0  0  0  0  0  0  0  0  0  0  0
    0.7144    2.0625    0.0000 C   0  0  0  0  0  0  0  0  0  0  0  0
    1.4289    1.6500    0.0000 O   0  0  0  0  0  0  0  0  0  0  0  0
   -2.8579    3.3000    0.0000 N   0  0  0  0  0  0  0  0  0  0  0  0
   -2.1434    2.8875    0.0000 C   0  0  0  0  0  0  0  0  0  0  0  0
   -2.1434    2.0625    0.0000 C   0  0  0  0  0  0  0  0  0  0  0  0
   -2.8579    1.6500    0.0000 C   0  0  0  0  0  0  0  0  0  0  0  0
   -3.5724    2.0625    0.0000 C   0  0  0  0  0  0  0  0  0  0  0  0
   -3.5724    2.8875    0.0000 C   0  0  0  0  0  0  0  0  0  0  0  0
   -1.4289    1.6500    0.0000 C   0  0  0  0  0  0  0  0  0  0  0  0
   -0.7145    2.0625    0.0000 O   0  0  0  0  0  0  0  0  0  0  0  0
   -4.2869   -0.8250    0.0000 N   0  0  0  0  0  0  0  0  0  0  0  0
   -3.5724   -0.4125    0.0000 C   0  0  0  0  0  0  0  0  0  0  0  0
   -2.8579   -0.8250    0.0000 C   0  0  0  0  0  0  0  0  0  0  0  0
   -2.8579   -1.6500    0.0000 C   0  0  0  0  0  0  0  0  0  0  0  0
   -3.5724   -2.0625    0.0000 C   0  0  0  0  0  0  0  0  0  0  0  0
   -4.2869   -1.6500    0.0000 C   0  0  0  0  0  0  0  0  0  0  0  0
   -2.1434   -0.4125    0.0000 C   0  0  0  0  0  0  0  0  0  0  0  0
   -2.1434    0.4125    0.0000 O   0  0  0  0  0  0  0  0  0  0  0  0
   -1.4289   -4.1251    0.0000 N   0  0  0  0  0  0  0  0  0  0  0  0
   -1.4289   -3.3000    0.0000 C   0  0  0  0  0  0  0  0  0  0  0  0
   -0.7145   -2.8876    0.0000 C   0  0  0  0  0  0  0  0  0  0  0  0
    0.0000   -3.3000    0.0000 C   0  0  0  0  0  0  0  0  0  0  0  0
    0.0000   -4.1251    0.0000 C   0  0  0  0  0  0  0  0  0  0  0  0
   -0.7145   -4.5376    0.0000 C   0  0  0  0  0  0  0  0  0  0  0  0
   -0.7145   -2.0625    0.0000 C   0  0  0  0  0  0  0  0  0  0  0  0
   -1.4289   -1.6500    0.0000 O   0  0  0  0  0  0  0  0  0  0  0  0
    4.2869    0.8249    0.0000 N   0  0  0  0  0  0  0  0  0  0  0  0
    3.5724    0.4125    0.0000 C   0  0  0  0  0  0  0  0  0  0  0  0
    2.8579    0.8249    0.0000 C   0  0  0  0  0  0  0  0  0  0  0  0
    2.8579    1.6500    0.0000 C   0  0  0  0  0  0  0  0  0  0  0  0
    3.5724    2.0625    0.0000 C   0  0  0  0  0  0  0  0  0  0  0  0
    4.2869    1.6500    0.0000 C   0  0  0  0  0  0  0  0  0  0  0  0
    2.1434    0.4125    0.0000 C   0  0  0  0  0  0  0  0  0  0  0  0
    2.1434   -0.4125    0.0000 O   0  0  0  0  0  0  0  0  0  0  0  0
    2.8579   -3.3000    0.0000 N   0  0  0  0  0  0  0  0  0  0  0  0
    2.1434   -2.8876    0.0000 C   0  0  0  0  0  0  0  0  0  0  0  0
    2.1434   -2.0625    0.0000 C   0  0  0  0  0  0  0  0  0  0  0  0
    2.8579   -1.6500    0.0000 C   0  0  0  0  0  0  0  0  0  0  0  0
    3.5724   -2.0625    0.0000 C   0  0  0  0  0  0  0  0  0  0  0  0
    3.5724   -2.8876    0.0000 C   0  0  0  0  0  0  0  0  0  0  0  0
    1.4289   -1.6500    0.0000 C   0  0  0  0  0  0  0  0  0  0  0  0
    0.7144   -2.0625    0.0000 O   0  0  0  0  0  0  0  0  0  0  0  0
  1  2  1  0  0  0  0
  1  6  1  0  0  0  0
  2  3  1  0  0  0  0
  3  4  1  0  0  0  0
  4  5  1  0  0  0  0
  5  6  1  0  0  0  0
  5  7  1  1  0  0  0
  6  8  1  1  0  0  0
  2  9  1  6  0  0  0
  3 10  1  1  0  0  0
  1 11  1  1  0  0  0
  4 12  1  6  0  0  0
 13 14  2  0  0  0  0
 13 18  1  0  0  0  0
 14 15  1  0  0  0  0
 15 16  2  0  0  0  0
 15 19  1  0  0  0  0
 16 17  1  0  0  0  0
 17 18  2  0  0  0  0
 19  7  1  0  0  0  0
 19 20  2  0  0  0  0
 21 22  2  0  0  0  0
 21 26  1  0  0  0  0
 22 23  1  0  0  0  0
 23 24  2  0  0  0  0
 23 27  1  0  0  0  0
 24 25  1  0  0  0  0
 25 26  2  0  0  0  0
 27 12  1  0  0  0  0
 27 28  2  0  0  0  0
 29 30  2  0  0  0  0
 29 34  1  0  0  0  0
 30 31  1  0  0  0  0
 31 32  2  0  0  0  0
 31 35  1  0  0  0  0
 32 33  1  0  0  0  0
 33 34  2  0  0  0  0
 35 10  1  0  0  0  0
 35 36  2  0  0  0  0
 37 38  2  0  0  0  0
 37 42  1  0  0  0  0
 38 39  1  0  0  0  0
 39 40  2  0  0  0  0
 39 43  1  0  0  0  0
 40 41  1  0  0  0  0
 41 42  2  0  0  0  0
 43  9  1  0  0  0  0
 43 44  2  0  0  0  0
 45 46  2  0  0  0  0
 45 50  1  0  0  0  0
 46 47  1  0  0  0  0
 47 48  2  0  0  0  0
 47 51  1  0  0  0  0
 48 49  1  0  0  0  0
 49 50  2  0  0  0  0
 51 52  2  0  0  0  0
  8 51  1  0  0  0  0
 53 54  2  0  0  0  0
 53 58  1  0  0  0  0
 54 55  1  0  0  0  0
 55 56  2  0  0  0  0
 55 59  1  0  0  0  0
 56 57  1  0  0  0  0
 57 58  2  0  0  0  0
 59 11  1  0  0  0  0
 59 60  2  0  0  0  0
M  END
> <DATABASE_ID>
DB08949

> <DATABASE_NAME>
drugbank

> <SMILES>
O=C(O[C@H]1[C@H](OC(=O)C2=CC=CN=C2)[C@@H](OC(=O)C2=CC=CN=C2)[C@H](OC(=O)C2=CC=CN=C2)[C@H](OC(=O)C2=CC=CN=C2)[C@@H]1OC(=O)C1=CC=CN=C1)C1=CC=CN=C1

> <INCHI_IDENTIFIER>
InChI=1S/C42H30N6O12/c49-37(25-7-1-13-43-19-25)55-31-32(56-38(50)26-8-2-14-44-20-26)34(58-40(52)28-10-4-16-46-22-28)36(60-42(54)30-12-6-18-48-24-30)35(59-41(53)29-11-5-17-47-23-29)33(31)57-39(51)27-9-3-15-45-21-27/h1-24,31-36H/t31-,32-,33-,34+,35-,36-

> <INCHI_KEY>
MFZCIDXOLLEMOO-GYSGTQPESA-N

> <FORMULA>
C42H30N6O12

> <MOLECULAR_WEIGHT>
810.732

> <EXACT_MASS>
810.19217043

> <JCHEM_ACCEPTOR_COUNT>
12

> <JCHEM_ATOM_COUNT>
90

> <JCHEM_AVERAGE_POLARIZABILITY>
76.08197104297136

> <JCHEM_BIOAVAILABILITY>
0

> <JCHEM_DONOR_COUNT>
0

> <JCHEM_FORMAL_CHARGE>
0

> <JCHEM_GHOSE_FILTER>
0

> <JCHEM_IUPAC>
(1R,2S,3R,4R,5S,6s)-2,3,4,5,6-pentakis(pyridine-3-carbonyloxy)cyclohexyl pyridine-3-carboxylate

> <ALOGPS_LOGP>
3.49

> <JCHEM_LOGP>
3.883754877999999

> <ALOGPS_LOGS>
-4.67

> <JCHEM_MDDR_LIKE_RULE>
1

> <JCHEM_NUMBER_OF_RINGS>
7

> <JCHEM_PHYSIOLOGICAL_CHARGE>
0

> <JCHEM_PKA_STRONGEST_BASIC>
4.017191554377561

> <JCHEM_POLAR_SURFACE_AREA>
235.13999999999993

> <JCHEM_REFRACTIVITY>
201.76559999999992

> <JCHEM_ROTATABLE_BOND_COUNT>
18

> <JCHEM_RULE_OF_FIVE>
0

> <ALOGPS_SOLUBILITY>
1.74e-02 g/l

> <JCHEM_TRADITIONAL_IUPAC>
(1R,2S,3R,4R,5S,6s)-2,3,4,5,6-pentakis(pyridine-3-carbonyloxy)cyclohexyl pyridine-3-carboxylate

> <JCHEM_VEBER_RULE>
0

> <DRUGBANK_ID>
DB08949

> <DRUG_GROUPS>
approved; withdrawn

> <GENERIC_NAME>
Inositol nicotinate

> <SYNONYMS>
hexanicotol; Inositol hexanicotinate; Inositol niacinate; Inositol nicotinate; mesoinositol hexanicotinate; myo-inositol hexanicotinate

> <PRODUCTS>
DermaNIC; Inositol Nicotinate 250 mg; TL-Care DHA; Tricare Prenatal DHA One; Tricare Prenatal DHA One Rx Multivitamin; Tricare Prenatal DHA One With Folate

> <INTERNATIONAL_BRANDS>
Hexaniton; Hexazin; Hexin; Hexopal; Iexaniton; Nicoxatin

$$$$

  Mrv1909 01152004502D          

 26 29  0  0  0  0            999 V2000
   -1.7805    2.8186    0.0000 C   0  0  0  0  0  0  0  0  0  0  0  0
   -0.9959    2.5637    0.0000 C   0  0  0  0  0  0  0  0  0  0  0  0
   -1.7805    3.6436    0.0000 C   0  0  0  0  0  0  0  0  0  0  0  0
   -2.4950    2.4061    0.0000 C   0  0  0  0  0  0  0  0  0  0  0  0
   -0.5110    3.2311    0.0000 C   0  0  0  0  0  0  0  0  0  0  0  0
   -0.7409    1.7791    0.0000 C   0  0  0  0  0  0  0  0  0  0  0  0
   -0.9959    3.8985    0.0000 N   0  0  0  0  0  0  0  0  0  0  0  0
   -2.4950    4.0561    0.0000 C   0  0  0  0  0  0  0  0  0  0  0  0
   -3.2094    2.8186    0.0000 C   0  0  0  0  0  0  0  0  0  0  0  0
    0.0659    1.6076    0.0000 C   0  0  0  0  0  0  0  0  0  0  0  0
   -3.2094    3.6436    0.0000 C   0  0  0  0  0  0  0  0  0  0  0  0
    0.3208    0.8229    0.0000 N   0  0  0  0  0  0  0  0  0  0  0  0
   -0.2311    0.2099    0.0000 C   0  0  0  0  0  0  0  0  0  0  0  0
    1.1278    0.6514    0.0000 C   0  0  0  0  0  0  0  0  0  0  0  0
    0.0237   -0.5746    0.0000 C   0  0  0  0  0  0  0  0  0  0  0  0
    1.3827   -0.1331    0.0000 C   0  0  0  0  0  0  0  0  0  0  0  0
    0.8306   -0.7462    0.0000 C   0  0  0  0  0  0  0  0  0  0  0  0
    1.0856   -1.5308    0.0000 N   0  0  0  0  0  0  0  0  0  0  0  0
    1.8926   -1.7023    0.0000 C   0  0  0  0  0  0  0  0  0  0  0  0
    2.1475   -2.4869    0.0000 C   0  0  0  0  0  0  0  0  0  0  0  0
    2.4446   -1.0892    0.0000 O   0  0  0  0  0  0  0  0  0  0  0  0
    1.5955   -3.0999    0.0000 C   0  0  0  0  0  0  0  0  0  0  0  0
    2.9544   -2.6584    0.0000 C   0  0  0  0  0  0  0  0  0  0  0  0
    1.8504   -3.8846    0.0000 C   0  0  0  0  0  0  0  0  0  0  0  0
    3.2094   -3.4430    0.0000 C   0  0  0  0  0  0  0  0  0  0  0  0
    2.6574   -4.0561    0.0000 C   0  0  0  0  0  0  0  0  0  0  0  0
  1  2  1  0  0  0  0
  1  3  2  0  0  0  0
  1  4  1  0  0  0  0
  2  5  2  0  0  0  0
  2  6  1  0  0  0  0
  3  7  1  0  0  0  0
  3  8  1  0  0  0  0
  4  9  2  0  0  0  0
  6 10  1  0  0  0  0
  8 11  2  0  0  0  0
 10 12  1  0  0  0  0
 12 13  1  0  0  0  0
 12 14  1  0  0  0  0
 13 15  1  0  0  0  0
 14 16  1  0  0  0  0
 15 17  1  0  0  0  0
 17 18  1  0  0  0  0
 18 19  1  0  0  0  0
 19 20  1  0  0  0  0
 19 21  2  0  0  0  0
 20 22  2  0  0  0  0
 20 23  1  0  0  0  0
 22 24  1  0  0  0  0
 23 25  2  0  0  0  0
 24 26  2  0  0  0  0
  5  7  1  0  0  0  0
  9 11  1  0  0  0  0
 16 17  1  0  0  0  0
 25 26  1  0  0  0  0
M  END
> <DATABASE_ID>
DB08950

> <DATABASE_NAME>
drugbank

> <SMILES>
O=C(NC1CCN(CCC2=CNC3=C2C=CC=C3)CC1)C1=CC=CC=C1

> <INCHI_IDENTIFIER>
InChI=1S/C22H25N3O/c26-22(17-6-2-1-3-7-17)24-19-11-14-25(15-12-19)13-10-18-16-23-21-9-5-4-8-20(18)21/h1-9,16,19,23H,10-15H2,(H,24,26)

> <INCHI_KEY>
JXZZEXZZKAWDSP-UHFFFAOYSA-N

> <FORMULA>
C22H25N3O

> <MOLECULAR_WEIGHT>
347.4534

> <EXACT_MASS>
347.199762437

> <JCHEM_ACCEPTOR_COUNT>
2

> <JCHEM_ATOM_COUNT>
51

> <JCHEM_AVERAGE_NEUTRAL_MICROSPECIES_CHARGE>
0.9900615756097715

> <JCHEM_AVERAGE_POLARIZABILITY>
40.71584182680395

> <JCHEM_BIOAVAILABILITY>
1

> <JCHEM_DONOR_COUNT>
2

> <JCHEM_FORMAL_CHARGE>
0

> <JCHEM_GHOSE_FILTER>
1

> <JCHEM_IUPAC>
N-{1-[2-(1H-indol-3-yl)ethyl]piperidin-4-yl}benzamide

> <ALOGPS_LOGP>
3.40

> <JCHEM_LOGP>
3.1862646183333334

> <ALOGPS_LOGS>
-4.60

> <JCHEM_MDDR_LIKE_RULE>
0

> <JCHEM_NEUTRAL_CHARGE>
1

> <JCHEM_NUMBER_OF_RINGS>
4

> <JCHEM_PHYSIOLOGICAL_CHARGE>
1

> <JCHEM_PKA>
17.16839778387188

> <JCHEM_PKA_STRONGEST_ACIDIC>
15.093245909460482

> <JCHEM_PKA_STRONGEST_BASIC>
8.998343872968713

> <JCHEM_POLAR_SURFACE_AREA>
48.13

> <JCHEM_REFRACTIVITY>
105.9383

> <JCHEM_ROTATABLE_BOND_COUNT>
5

> <JCHEM_RULE_OF_FIVE>
1

> <ALOGPS_SOLUBILITY>
8.63e-03 g/l

> <JCHEM_TRADITIONAL_IUPAC>
iotroxic acid

> <JCHEM_VEBER_RULE>
0

> <DRUGBANK_ID>
DB08950

> <DRUG_GROUPS>
approved; withdrawn

> <GENERIC_NAME>
Indoramin

> <SYNONYMS>
Indoramin; Indoramina; Indoramine; Indoraminum

> <INTERNATIONAL_BRANDS>
Baratol; Doralese; Vidora; Wydora

> <SALTS>
Indoramin hydrochloride

$$$$

  Mrv0541 05271412302D          

 21 23  0  0  0  0            999 V2000
   -3.0587    0.8084    0.0000 C   0  0  0  0  0  0  0  0  0  0  0  0
    3.3522    1.1104    0.0000 C   0  0  0  0  0  0  0  0  0  0  0  0
    3.3522    1.9354    0.0000 C   0  0  0  0  0  0  0  0  0  0  0  0
    2.6378    0.6979    0.0000 C   0  0  0  0  0  0  0  0  0  0  0  0
    2.6378    2.3479    0.0000 C   0  0  0  0  0  0  0  0  0  0  0  0
   -1.4087    0.8084    0.0000 C   0  0  0  0  0  0  0  0  0  0  0  0
   -1.4087    2.2374    0.0000 C   0  0  0  0  0  0  0  0  0  0  0  0
   -0.5837    0.8084    0.0000 C   0  0  0  0  0  0  0  0  0  0  0  0
   -0.5837    2.2374    0.0000 C   0  0  0  0  0  0  0  0  0  0  0  0
    1.1387    0.8555    0.0000 C   0  0  0  0  0  0  0  0  0  0  0  0
   -2.6462    1.5229    0.0000 C   0  0  0  0  0  0  0  0  0  0  0  0
   -1.8212    1.5229    0.0000 C   0  0  0  0  0  0  0  0  0  0  0  0
    1.9233    1.1104    0.0000 C   0  0  0  0  0  0  0  0  0  0  0  0
   -0.1712    1.5229    0.0000 C   0  0  0  0  0  0  0  0  0  0  0  0
    1.9233    1.9354    0.0000 C   0  0  0  0  0  0  0  0  0  0  0  0
    1.1387    2.1903    0.0000 C   0  0  0  0  0  0  0  0  0  0  0  0
   -3.0587    2.2374    0.0000 C   0  0  0  0  0  0  0  0  0  0  0  0
    0.6537    1.5229    0.0000 N   0  0  0  0  0  0  0  0  0  0  0  0
    0.8837    2.9750    0.0000 O   0  0  0  0  0  0  0  0  0  0  0  0
   -3.8837    2.2374    0.0000 O   0  0  0  0  0  0  0  0  0  0  0  0
   -2.6462    2.9518    0.0000 O   0  0  0  0  0  0  0  0  0  0  0  0
  3  2  2  0  0  0  0
  4  2  1  0  0  0  0
  5  3  1  0  0  0  0
  8  6  1  0  0  0  0
  9  7  2  0  0  0  0
 11  1  1  0  0  0  0
 12  6  2  0  0  0  0
 12  7  1  0  0  0  0
 12 11  1  0  0  0  0
 13  4  2  0  0  0  0
 13 10  1  0  0  0  0
 14  8  2  0  0  0  0
 14  9  1  0  0  0  0
 15  5  2  0  0  0  0
 15 13  1  0  0  0  0
 16 15  1  0  0  0  0
 17 11  1  0  0  0  0
 18 10  1  0  0  0  0
 18 14  1  0  0  0  0
 18 16  1  0  0  0  0
 19 16  2  0  0  0  0
 20 17  2  0  0  0  0
 21 17  1  0  0  0  0
M  END
> <DATABASE_ID>
DB08951

> <DATABASE_NAME>
drugbank

> <SMILES>
CC(C(O)=O)C1=CC=C(C=C1)N1CC2=CC=CC=C2C1=O

> <INCHI_IDENTIFIER>
InChI=1S/C17H15NO3/c1-11(17(20)21)12-6-8-14(9-7-12)18-10-13-4-2-3-5-15(13)16(18)19/h2-9,11H,10H2,1H3,(H,20,21)

> <INCHI_KEY>
RJMIEHBSYVWVIN-UHFFFAOYSA-N

> <FORMULA>
C17H15NO3

> <MOLECULAR_WEIGHT>
281.3059

> <EXACT_MASS>
281.105193351

> <JCHEM_ACCEPTOR_COUNT>
3

> <JCHEM_AVERAGE_POLARIZABILITY>
30.244359054041514

> <JCHEM_BIOAVAILABILITY>
1

> <JCHEM_DONOR_COUNT>
1

> <JCHEM_FORMAL_CHARGE>
0

> <JCHEM_GHOSE_FILTER>
1

> <JCHEM_IUPAC>
2-[4-(1-oxo-2,3-dihydro-1H-isoindol-2-yl)phenyl]propanoic acid

> <ALOGPS_LOGP>
2.44

> <JCHEM_LOGP>
2.8611585593333335

> <ALOGPS_LOGS>
-3.34

> <JCHEM_MDDR_LIKE_RULE>
0

> <JCHEM_NUMBER_OF_RINGS>
3

> <JCHEM_PHYSIOLOGICAL_CHARGE>
-1

> <JCHEM_PKA>
14.683431218934714

> <JCHEM_PKA_STRONGEST_ACIDIC>
3.7421788243955914

> <JCHEM_PKA_STRONGEST_BASIC>
-3.4730183754982424

> <JCHEM_POLAR_SURFACE_AREA>
57.61

> <JCHEM_REFRACTIVITY>
79.1441

> <JCHEM_ROTATABLE_BOND_COUNT>
3

> <JCHEM_RULE_OF_FIVE>
1

> <ALOGPS_SOLUBILITY>
1.28e-01 g/l

> <JCHEM_TRADITIONAL_IUPAC>
indoprofen

> <JCHEM_VEBER_RULE>
0

> <DRUGBANK_ID>
DB08951

> <DRUG_GROUPS>
withdrawn

> <GENERIC_NAME>
Indoprofen

> <SYNONYMS>
Indoprofen; indoprofeno

$$$$

  Mrv0541 05271412452D          

 18 19  0  0  0  0            999 V2000
    3.5723    2.0625    0.0000 C   0  0  0  0  0  0  0  0  0  0  0  0
    2.8578    3.3000    0.0000 C   0  0  0  0  0  0  0  0  0  0  0  0
   -3.1354    1.1692    0.0000 C   0  0  0  0  0  0  0  0  0  0  0  0
   -2.1434    3.7125    0.0000 C   0  0  0  0  0  0  0  0  0  0  0  0
   -3.4709    1.9229    0.0000 C   0  0  0  0  0  0  0  0  0  0  0  0
   -2.8578    3.3000    0.0000 C   0  0  0  0  0  0  0  0  0  0  0  0
   -2.3149    1.2555    0.0000 C   0  0  0  0  0  0  0  0  0  0  0  0
   -1.4289    3.3000    0.0000 C   0  0  0  0  0  0  0  0  0  0  0  0
    1.4289    2.4750    0.0000 C   0  0  0  0  0  0  0  0  0  0  0  0
    0.0000    2.4750    0.0000 C   0  0  0  0  0  0  0  0  0  0  0  0
    2.8578    2.4750    0.0000 C   0  0  0  0  0  0  0  0  0  0  0  0
   -2.8578    2.4750    0.0000 C   0  0  0  0  0  0  0  0  0  0  0  0
    0.7144    2.0625    0.0000 C   0  0  0  0  0  0  0  0  0  0  0  0
   -2.1434    2.0625    0.0000 C   0  0  0  0  0  0  0  0  0  0  0  0
   -1.4289    2.4750    0.0000 C   0  0  0  0  0  0  0  0  0  0  0  0
    2.1434    2.0625    0.0000 N   0  0  0  0  0  0  0  0  0  0  0  0
    0.7144    1.2375    0.0000 O   0  0  0  0  0  0  0  0  0  0  0  0
   -0.7144    2.0625    0.0000 O   0  0  0  0  0  0  0  0  0  0  0  0
  5  3  1  0  0  0  0
  6  4  2  0  0  0  0
  7  3  2  0  0  0  0
  8  4  1  0  0  0  0
 11  1  1  0  0  0  0
 11  2  1  0  0  0  0
 12  5  1  0  0  0  0
 12  6  1  0  0  0  0
 13  9  1  0  0  0  0
 13 10  1  0  0  0  0
 14  7  1  0  0  0  0
 14 12  2  0  0  0  0
 15  8  2  0  0  0  0
 15 14  1  0  0  0  0
 16  9  1  0  0  0  0
 16 11  1  0  0  0  0
 17 13  1  0  0  0  0
 18 10  1  0  0  0  0
 18 15  1  0  0  0  0
M  END
> <DATABASE_ID>
DB08952

> <DATABASE_NAME>
drugbank

> <SMILES>
CC(C)NCC(O)COC1=CC=CC2=C1C=CC2

> <INCHI_IDENTIFIER>
InChI=1S/C15H21NO2/c1-11(2)16-9-13(17)10-18-15-8-4-6-12-5-3-7-14(12)15/h3-4,6-8,11,13,16-17H,5,9-10H2,1-2H3

> <INCHI_KEY>
MPGBPFMOOXKQRX-UHFFFAOYSA-N

> <FORMULA>
C15H21NO2

> <MOLECULAR_WEIGHT>
247.3327

> <EXACT_MASS>
247.157228921

> <JCHEM_ACCEPTOR_COUNT>
3

> <JCHEM_AVERAGE_POLARIZABILITY>
28.655038995663478

> <JCHEM_BIOAVAILABILITY>
1

> <JCHEM_DONOR_COUNT>
2

> <JCHEM_FORMAL_CHARGE>
0

> <JCHEM_GHOSE_FILTER>
1

> <JCHEM_IUPAC>
1-(1H-inden-4-yloxy)-3-[(propan-2-yl)amino]propan-2-ol

> <ALOGPS_LOGP>
2.53

> <JCHEM_LOGP>
2.322683057

> <ALOGPS_LOGS>
-2.95

> <JCHEM_MDDR_LIKE_RULE>
0

> <JCHEM_NUMBER_OF_RINGS>
2

> <JCHEM_PHYSIOLOGICAL_CHARGE>
1

> <JCHEM_PKA>
18.652834249533473

> <JCHEM_PKA_STRONGEST_ACIDIC>
14.087918433957654

> <JCHEM_PKA_STRONGEST_BASIC>
9.666166403684079

> <JCHEM_POLAR_SURFACE_AREA>
41.489999999999995

> <JCHEM_REFRACTIVITY>
74.3733

> <JCHEM_ROTATABLE_BOND_COUNT>
6

> <JCHEM_RULE_OF_FIVE>
1

> <ALOGPS_SOLUBILITY>
2.77e-01 g/l

> <JCHEM_TRADITIONAL_IUPAC>
1-(1H-inden-4-yloxy)-3-(isopropylamino)propan-2-ol

> <JCHEM_VEBER_RULE>
0

> <DRUGBANK_ID>
DB08952

> <DRUG_GROUPS>
withdrawn

> <GENERIC_NAME>
Indenolol

$$$$

  Mrv0541 05281410052D          

 17 19  0  0  0  0            999 V2000
    3.3522    1.1104    0.0000 C   0  0  0  0  0  0  0  0  0  0  0  0
    3.3522    1.9354    0.0000 C   0  0  0  0  0  0  0  0  0  0  0  0
    2.6378    0.6979    0.0000 C   0  0  0  0  0  0  0  0  0  0  0  0
    2.6378    2.3479    0.0000 C   0  0  0  0  0  0  0  0  0  0  0  0
    0.0768   -0.1006    0.0000 C   0  0  0  0  0  0  0  0  0  0  0  0
    0.8837    0.0708    0.0000 C   0  0  0  0  0  0  0  0  0  0  0  0
   -0.9851   -1.0567    0.0000 C   0  0  0  0  0  0  0  0  0  0  0  0
    0.3739   -1.4983    0.0000 C   0  0  0  0  0  0  0  0  0  0  0  0
   -1.2400   -1.8414    0.0000 C   0  0  0  0  0  0  0  0  0  0  0  0
    0.1189   -2.2829    0.0000 C   0  0  0  0  0  0  0  0  0  0  0  0
    0.6537    1.5229    0.0000 C   0  0  0  0  0  0  0  0  0  0  0  0
   -0.1781   -0.8852    0.0000 C   0  0  0  0  0  0  0  0  0  0  0  0
    1.1387    0.8555    0.0000 C   0  0  0  0  0  0  0  0  0  0  0  0
    1.9233    1.1104    0.0000 C   0  0  0  0  0  0  0  0  0  0  0  0
    1.9233    1.9354    0.0000 C   0  0  0  0  0  0  0  0  0  0  0  0
   -0.6880   -2.4545    0.0000 N   0  0  0  0  0  0  0  0  0  0  0  0
    1.1387    2.1903    0.0000 N   0  0  0  0  0  0  0  0  0  0  0  0
  2  1  2  0  0  0  0
  3  1  1  0  0  0  0
  4  2  1  0  0  0  0
  6  5  1  0  0  0  0
  9  7  1  0  0  0  0
 10  8  1  0  0  0  0
 12  5  1  0  0  0  0
 12  7  1  0  0  0  0
 12  8  1  0  0  0  0
 13  6  1  0  0  0  0
 13 11  2  0  0  0  0
 14  3  2  0  0  0  0
 14 13  1  0  0  0  0
 15  4  2  0  0  0  0
 15 14  1  0  0  0  0
 16  9  1  0  0  0  0
 16 10  1  0  0  0  0
 17 11  1  0  0  0  0
 17 15  1  0  0  0  0
M  END
> <DATABASE_ID>
DB08953

> <DATABASE_NAME>
drugbank

> <SMILES>
C(CC1=CNC2=CC=CC=C12)C1CCNCC1

> <INCHI_IDENTIFIER>
InChI=1S/C15H20N2/c1-2-4-15-14(3-1)13(11-17-15)6-5-12-7-9-16-10-8-12/h1-4,11-12,16-17H,5-10H2

> <INCHI_KEY>
SADQVAVFGNTEOD-UHFFFAOYSA-N

> <FORMULA>
C15H20N2

> <MOLECULAR_WEIGHT>
228.3327

> <EXACT_MASS>
228.16264865

> <JCHEM_ACCEPTOR_COUNT>
1

> <JCHEM_AVERAGE_POLARIZABILITY>
27.586915814128364

> <JCHEM_BIOAVAILABILITY>
1

> <JCHEM_DONOR_COUNT>
2

> <JCHEM_FORMAL_CHARGE>
0

> <JCHEM_GHOSE_FILTER>
1

> <JCHEM_IUPAC>
3-[2-(piperidin-4-yl)ethyl]-1H-indole

> <ALOGPS_LOGP>
3.58

> <JCHEM_LOGP>
3.0662100519999993

> <ALOGPS_LOGS>
-4.26

> <JCHEM_MDDR_LIKE_RULE>
0

> <JCHEM_NUMBER_OF_RINGS>
3

> <JCHEM_PHYSIOLOGICAL_CHARGE>
1

> <JCHEM_PKA_STRONGEST_ACIDIC>
17.31878029195073

> <JCHEM_PKA_STRONGEST_BASIC>
10.355899821464133

> <JCHEM_POLAR_SURFACE_AREA>
27.82

> <JCHEM_REFRACTIVITY>
71.76750000000001

> <JCHEM_ROTATABLE_BOND_COUNT>
3

> <JCHEM_RULE_OF_FIVE>
1

> <ALOGPS_SOLUBILITY>
1.25e-02 g/l

> <JCHEM_TRADITIONAL_IUPAC>
indalpine

> <JCHEM_VEBER_RULE>
1

> <DRUGBANK_ID>
DB08953

> <DRUG_GROUPS>
investigational; withdrawn

> <GENERIC_NAME>
Indalpine

> <INTERNATIONAL_BRANDS>
Upstène

$$$$

  Mrv0541 05281411122D          

 24 26  0  0  0  0            999 V2000
   -4.2868    5.7750    0.0000 C   0  0  0  0  0  0  0  0  0  0  0  0
   -0.7144    2.0625    0.0000 C   0  0  0  0  0  0  0  0  0  0  0  0
    0.0000    2.4750    0.0000 C   0  0  0  0  0  0  0  0  0  0  0  0
   -1.4289    2.4750    0.0000 C   0  0  0  0  0  0  0  0  0  0  0  0
    0.0000    3.3000    0.0000 C   0  0  0  0  0  0  0  0  0  0  0  0
   -1.4289    3.3000    0.0000 C   0  0  0  0  0  0  0  0  0  0  0  0
   -4.2868    8.2500    0.0000 C   0  0  0  0  0  0  0  0  0  0  0  0
   -5.0012    7.0125    0.0000 C   0  0  0  0  0  0  0  0  0  0  0  0
   -5.0012    8.6625    0.0000 C   0  0  0  0  0  0  0  0  0  0  0  0
   -5.7157    7.4250    0.0000 C   0  0  0  0  0  0  0  0  0  0  0  0
   -1.4289    5.7750    0.0000 C   0  0  0  0  0  0  0  0  0  0  0  0
   -2.1434    4.5375    0.0000 C   0  0  0  0  0  0  0  0  0  0  0  0
   -2.1434    6.1875    0.0000 C   0  0  0  0  0  0  0  0  0  0  0  0
   -2.8578    4.9500    0.0000 C   0  0  0  0  0  0  0  0  0  0  0  0
   -0.7144    4.5375    0.0000 C   0  0  0  0  0  0  0  0  0  0  0  0
   -3.5723    6.1875    0.0000 C   0  0  0  0  0  0  0  0  0  0  0  0
   -0.7144    3.7125    0.0000 C   0  0  0  0  0  0  0  0  0  0  0  0
   -1.4289    4.9500    0.0000 C   0  0  0  0  0  0  0  0  0  0  0  0
   -4.2868    7.4250    0.0000 C   0  0  0  0  0  0  0  0  0  0  0  0
   -5.7157    8.2500    0.0000 C   0  0  0  0  0  0  0  0  0  0  0  0
   -3.5723    7.0125    0.0000 C   0  0  0  0  0  0  0  0  0  0  0  0
   -2.8578    5.7750    0.0000 N   0  0  0  0  0  0  0  0  0  0  0  0
   -6.4302    8.6625    0.0000 O   0  0  0  0  0  0  0  0  0  0  0  0
   -2.8578    7.4250    0.0000 O   0  0  0  0  0  0  0  0  0  0  0  0
  3  2  2  0  0  0  0
  4  2  1  0  0  0  0
  5  3  1  0  0  0  0
  6  4  2  0  0  0  0
  9  7  1  0  0  0  0
 10  8  2  0  0  0  0
 13 11  1  0  0  0  0
 14 12  1  0  0  0  0
 16  1  1  0  0  0  0
 17  5  2  0  0  0  0
 17  6  1  0  0  0  0
 17 15  1  0  0  0  0
 18 11  1  0  0  0  0
 18 12  1  0  0  0  0
 18 15  1  0  0  0  0
 19  7  2  0  0  0  0
 19  8  1  0  0  0  0
 20  9  2  0  0  0  0
 20 10  1  0  0  0  0
 21 16  1  0  0  0  0
 21 19  1  0  0  0  0
 22 13  1  0  0  0  0
 22 14  1  0  0  0  0
 22 16  1  0  0  0  0
 23 20  1  0  0  0  0
 24 21  1  0  0  0  0
M  END
> <DATABASE_ID>
DB08954

> <DATABASE_NAME>
drugbank

> <SMILES>
CC(C(O)C1=CC=C(O)C=C1)N1CCC(CC2=CC=CC=C2)CC1

> <INCHI_IDENTIFIER>
InChI=1S/C21H27NO2/c1-16(21(24)19-7-9-20(23)10-8-19)22-13-11-18(12-14-22)15-17-5-3-2-4-6-17/h2-10,16,18,21,23-24H,11-15H2,1H3

> <INCHI_KEY>
UYNVMODNBIQBMV-UHFFFAOYSA-N

> <FORMULA>
C21H27NO2

> <MOLECULAR_WEIGHT>
325.4446

> <EXACT_MASS>
325.204179113

> <JCHEM_ACCEPTOR_COUNT>
3

> <JCHEM_AVERAGE_POLARIZABILITY>
37.52432476297191

> <JCHEM_BIOAVAILABILITY>
1

> <JCHEM_DONOR_COUNT>
2

> <JCHEM_FORMAL_CHARGE>
0

> <JCHEM_GHOSE_FILTER>
1

> <JCHEM_IUPAC>
4-[2-(4-benzylpiperidin-1-yl)-1-hydroxypropyl]phenol

> <ALOGPS_LOGP>
3.98

> <JCHEM_LOGP>
3.5710014461647885

> <ALOGPS_LOGS>
-3.49

> <JCHEM_MDDR_LIKE_RULE>
0

> <JCHEM_NUMBER_OF_RINGS>
3

> <JCHEM_PHYSIOLOGICAL_CHARGE>
1

> <JCHEM_PKA>
14.022389337135788

> <JCHEM_PKA_STRONGEST_ACIDIC>
9.66631038886235

> <JCHEM_PKA_STRONGEST_BASIC>
9.025073855378915

> <JCHEM_POLAR_SURFACE_AREA>
43.7

> <JCHEM_REFRACTIVITY>
98.3495

> <JCHEM_ROTATABLE_BOND_COUNT>
5

> <JCHEM_RULE_OF_FIVE>
1

> <ALOGPS_SOLUBILITY>
1.05e-01 g/l

> <JCHEM_TRADITIONAL_IUPAC>
ifenprodil

> <JCHEM_VEBER_RULE>
0

> <DRUGBANK_ID>
DB08954

> <DRUG_GROUPS>
investigational; withdrawn

> <GENERIC_NAME>
Ifenprodil

> <SYNONYMS>
Ifenprodil; Ifenprodilum

> <INTERNATIONAL_BRANDS>
Cerocral; Furezanil; Iburonol; Linbulane; Technis; Vadilex; Vasculodil; Youajyl

> <SALTS>
Ifenprodil tartrate

$$$$

  Mrv1909 01152004532D          

 16 16  0  0  0  0            999 V2000
   -1.0721    0.0000    0.0000 C   0  0  0  0  0  0  0  0  0  0  0  0
   -1.0721   -0.8250    0.0000 C   0  0  0  0  0  0  0  0  0  0  0  0
   -0.3576   -1.2375    0.0000 C   0  0  0  0  0  0  0  0  0  0  0  0
    0.3566   -0.8250    0.0000 C   0  0  0  0  0  0  0  0  0  0  0  0
    0.3566    0.0000    0.0000 C   0  0  0  0  0  0  0  0  0  0  0  0
   -0.3576    0.4125    0.0000 C   0  0  0  0  0  0  0  0  0  0  0  0
   -1.7866   -1.2375    0.0000 C   0  0  0  0  0  0  0  0  0  0  0  0
   -2.5011   -0.8250    0.0000 C   0  0  0  0  0  0  0  0  0  0  0  0
   -3.2156   -1.2375    0.0000 C   0  0  0  0  0  0  0  0  0  0  0  0
   -2.5011    0.0000    0.0000 C   0  0  0  0  0  0  0  0  0  0  0  0
    1.0722    0.4125    0.0000 C   0  0  0  0  0  0  0  0  0  0  0  0
    1.7866    0.0000    0.0000 C   0  0  0  0  0  0  0  0  0  0  0  0
    2.5011    0.4125    0.0000 N   0  0  0  0  0  0  0  0  0  0  0  0
    1.7866   -0.8250    0.0000 O   0  0  0  0  0  0  0  0  0  0  0  0
    1.0725    1.2375    0.0000 C   0  0  0  0  0  0  0  0  0  0  0  0
    3.2156    0.0000    0.0000 O   0  0  0  0  0  0  0  0  0  0  0  0
  1  2  2  0  0  0  0
  2  3  1  0  0  0  0
  3  4  2  0  0  0  0
  4  5  1  0  0  0  0
  5  6  2  0  0  0  0
  1  6  1  0  0  0  0
  2  7  1  0  0  0  0
  7  8  1  0  0  0  0
  8  9  1  0  0  0  0
  8 10  1  0  0  0  0
  5 11  1  0  0  0  0
 11 12  1  0  0  0  0
 12 13  1  0  0  0  0
 12 14  2  0  0  0  0
 11 15  1  0  0  0  0
 13 16  1  0  0  0  0
M  END
> <DATABASE_ID>
DB08955

> <DATABASE_NAME>
drugbank

> <SMILES>
CC(C)CC1=CC=C(C=C1)C(C)C(=O)NO

> <INCHI_IDENTIFIER>
InChI=1S/C13H19NO2/c1-9(2)8-11-4-6-12(7-5-11)10(3)13(15)14-16/h4-7,9-10,16H,8H2,1-3H3,(H,14,15)

> <INCHI_KEY>
BYPIURIATSUHDW-UHFFFAOYSA-N

> <FORMULA>
C13H19NO2

> <MOLECULAR_WEIGHT>
221.2955

> <EXACT_MASS>
221.141578857

> <JCHEM_ACCEPTOR_COUNT>
2

> <JCHEM_ATOM_COUNT>
35

> <JCHEM_AVERAGE_NEUTRAL_MICROSPECIES_CHARGE>
-0.01462808982766794

> <JCHEM_AVERAGE_POLARIZABILITY>
25.07614243630121

> <JCHEM_BIOAVAILABILITY>
1

> <JCHEM_DONOR_COUNT>
2

> <JCHEM_FORMAL_CHARGE>
0

> <JCHEM_GHOSE_FILTER>
1

> <JCHEM_IUPAC>
N-hydroxy-2-[4-(2-methylpropyl)phenyl]propanamide

> <ALOGPS_LOGP>
2.77

> <JCHEM_LOGP>
3.033433858333334

> <ALOGPS_LOGS>
-3.48

> <JCHEM_MDDR_LIKE_RULE>
0

> <JCHEM_NEUTRAL_CHARGE>
0

> <JCHEM_NUMBER_OF_RINGS>
1

> <JCHEM_PHYSIOLOGICAL_CHARGE>
0

> <JCHEM_PKA>
17.081954773854

> <JCHEM_PKA_STRONGEST_ACIDIC>
8.82841256168873

> <JCHEM_PKA_STRONGEST_BASIC>
-5.497385156236892

> <JCHEM_POLAR_SURFACE_AREA>
49.33

> <JCHEM_REFRACTIVITY>
64.31869999999999

> <JCHEM_ROTATABLE_BOND_COUNT>
4

> <JCHEM_RULE_OF_FIVE>
1

> <ALOGPS_SOLUBILITY>
7.30e-02 g/l

> <JCHEM_TRADITIONAL_IUPAC>
iotroxic acid

> <JCHEM_VEBER_RULE>
0

> <DRUGBANK_ID>
DB08955

> <DRUG_GROUPS>
withdrawn

> <GENERIC_NAME>
Ibuproxam

> <SYNONYMS>
Ibuproxam; Ibuproxamum; p-Isobutylhydratropohydroxamic acid

> <INTERNATIONAL_BRANDS>
Deflogon; Ibudros

$$$$

  Mrv0541 05281412422D          

 29 32  0  0  0  0            999 V2000
    4.5465    1.3336    0.0000 C   0  0  0  0  0  0  0  0  0  0  0  0
    2.0306    1.7357    0.0000 C   0  0  0  0  0  0  0  0  0  0  0  0
    4.5753   -0.8489    0.0000 C   0  0  0  0  0  0  0  0  0  0  0  0
    3.7632   -0.7037    0.0000 C   0  0  0  0  0  0  0  0  0  0  0  0
    2.0195   -0.2889    0.0000 C   0  0  0  0  0  0  0  0  0  0  0  0
    1.3366    0.1740    0.0000 C   0  0  0  0  0  0  0  0  0  0  0  0
    6.1708    1.0432    0.0000 C   0  0  0  0  0  0  0  0  0  0  0  0
    3.7344    1.4788    0.0000 C   0  0  0  0  0  0  0  0  0  0  0  0
    5.3587    1.1884    0.0000 C   0  0  0  0  0  0  0  0  0  0  0  0
    2.9223    1.6240    0.0000 C   0  0  0  0  0  0  0  0  0  0  0  0
    5.9193   -0.3634    0.0000 C   0  0  0  0  0  0  0  0  0  0  0  0
    0.2423    1.5050    0.0000 C   0  0  0  0  0  0  0  0  0  0  0  0
    5.1071   -0.2182    0.0000 C   0  0  2  0  0  0  0  0  0  0  0  0
    6.4511    0.2672    0.0000 C   0  0  0  0  0  0  0  0  0  0  0  0
    3.4829    0.0722    0.0000 C   0  0  1  0  0  0  0  0  0  0  0  0
    2.6708    0.2174    0.0000 C   0  0  1  0  0  0  0  0  0  0  0  0
    4.0147    0.7029    0.0000 C   0  0  1  0  0  0  0  0  0  0  0  0
    1.5659    0.9665    0.0000 C   0  0  2  0  0  0  0  0  0  0  0  0
    1.0596    1.6178    0.0000 C   0  0  0  0  0  0  0  0  0  0  0  0
    4.8268    0.5577    0.0000 C   0  0  2  0  0  0  0  0  0  0  0  0
    2.3905    0.9933    0.0000 C   0  0  2  0  0  0  0  0  0  0  0  0
   -0.2639    2.1563    0.0000 O   0  0  0  0  0  0  0  0  0  0  0  0
    7.2632    0.1220    0.0000 O   0  0  0  0  0  0  0  0  0  0  0  0
    1.3705    2.3820    0.0000 O   0  0  0  0  0  0  0  0  0  0  0  0
    5.3874   -0.9941    0.0000 H   0  0  0  0  0  0  0  0  0  0  0  0
    3.1989   -0.7023    0.0000 H   0  0  0  0  0  0  0  0  0  0  0  0
    2.5826   -0.6028    0.0000 H   0  0  0  0  0  0  0  0  0  0  0  0
    4.2988    1.4774    0.0000 H   0  0  0  0  0  0  0  0  0  0  0  0
    0.7557    0.8110    0.0000 H   0  0  0  0  0  0  0  0  0  0  0  0
  4  3  1  0  0  0  0
  6  5  1  0  0  0  0
  9  7  1  0  0  0  0
 10  8  1  0  0  0  0
 13  3  1  0  0  0  0
 13 11  1  0  0  0  0
 14  7  1  0  0  0  0
 14 11  1  0  0  0  0
 15  4  1  0  0  0  0
 16  5  1  0  0  0  0
 16 15  1  0  0  0  0
 17  8  1  0  0  0  0
 17 15  1  0  0  0  0
 18  6  1  0  0  0  0
 19 12  1  0  0  0  0
 18 19  1  6  0  0  0
 20  1  1  6  0  0  0
 20  9  1  0  0  0  0
 20 13  1  0  0  0  0
 20 17  1  0  0  0  0
 21  2  1  6  0  0  0
 21 10  1  0  0  0  0
 21 16  1  0  0  0  0
 21 18  1  0  0  0  0
 22 12  1  0  0  0  0
 23 14  2  0  0  0  0
 24 19  2  0  0  0  0
 13 25  1  6  0  0  0
 15 26  1  6  0  0  0
 16 27  1  1  0  0  0
 17 28  1  1  0  0  0
 18 29  1  1  0  0  0
M  END
> <DATABASE_ID>
DB08956

> <DATABASE_NAME>
drugbank

> <SMILES>
[H][C@@]1(CC[C@@]2([H])[C@]3([H])CC[C@]4([H])CC(=O)CC[C@]4(C)[C@@]3([H])CC[C@]12C)C(=O)CO

> <INCHI_IDENTIFIER>
InChI=1S/C21H32O3/c1-20-9-7-14(23)11-13(20)3-4-15-16-5-6-18(19(24)12-22)21(16,2)10-8-17(15)20/h13,15-18,22H,3-12H2,1-2H3/t13-,15+,16+,17+,18-,20+,21+/m1/s1

> <INCHI_KEY>
USPYDUPOCUYHQL-VEVMSBRDSA-N

> <FORMULA>
C21H32O3

> <MOLECULAR_WEIGHT>
332.477

> <EXACT_MASS>
332.23514489

> <JCHEM_ACCEPTOR_COUNT>
3

> <JCHEM_AVERAGE_POLARIZABILITY>
38.60562526332246

> <JCHEM_BIOAVAILABILITY>
1

> <JCHEM_DONOR_COUNT>
1

> <JCHEM_FORMAL_CHARGE>
0

> <JCHEM_GHOSE_FILTER>
1

> <JCHEM_IUPAC>
(1S,2S,7R,10R,11S,14S,15S)-14-(2-hydroxyacetyl)-2,15-dimethyltetracyclo[8.7.0.0²,⁷.0¹¹,¹⁵]heptadecan-5-one

> <ALOGPS_LOGP>
3.43

> <JCHEM_LOGP>
3.3771906896666675

> <ALOGPS_LOGS>
-4.33

> <JCHEM_MDDR_LIKE_RULE>
0

> <JCHEM_NUMBER_OF_RINGS>
4

> <JCHEM_PHYSIOLOGICAL_CHARGE>
0

> <JCHEM_PKA_STRONGEST_ACIDIC>
13.86472632401048

> <JCHEM_PKA_STRONGEST_BASIC>
-3.2953178742344527

> <JCHEM_POLAR_SURFACE_AREA>
54.37

> <JCHEM_REFRACTIVITY>
93.58079999999994

> <JCHEM_ROTATABLE_BOND_COUNT>
2

> <JCHEM_RULE_OF_FIVE>
1

> <ALOGPS_SOLUBILITY>
1.56e-02 g/l

> <JCHEM_TRADITIONAL_IUPAC>
hydroxydione

> <JCHEM_VEBER_RULE>
0

> <DRUGBANK_ID>
DB08956

> <DRUG_GROUPS>
investigational; withdrawn

> <GENERIC_NAME>
Hydroxydione

> <SYNONYMS>
21-hydroxy-5β-pregnane-3,20-dione; 5beta-dihydrodeoxycorticosterone; 5β-dihydrodeoxycorticosterone

> <INTERNATIONAL_BRANDS>
Viadril

> <SALTS>
Hydroxydione sodium

$$$$

  Mrv0541 05281413042D          

 30 31  0  0  0  0            999 V2000
    2.8578    2.4750    0.0000 C   0  0  0  0  0  0  0  0  0  0  0  0
    2.1434    2.0625    0.0000 C   0  0  0  0  0  0  0  0  0  0  0  0
    3.5723    2.0625    0.0000 C   0  0  0  0  0  0  0  0  0  0  0  0
    1.4289    2.4750    0.0000 C   0  0  0  0  0  0  0  0  0  0  0  0
    7.8591    2.0625    0.0000 C   0  0  0  0  0  0  0  0  0  0  0  0
   -2.8578    2.4750    0.0000 C   0  0  0  0  0  0  0  0  0  0  0  0
    8.5736    2.4750    0.0000 C   0  0  0  0  0  0  0  0  0  0  0  0
   -3.5723    2.0625    0.0000 C   0  0  0  0  0  0  0  0  0  0  0  0
    4.2868    2.4750    0.0000 C   0  0  0  0  0  0  0  0  0  0  0  0
    0.7144    2.0625    0.0000 C   0  0  0  0  0  0  0  0  0  0  0  0
    7.1447    3.3000    0.0000 C   0  0  0  0  0  0  0  0  0  0  0  0
   -2.1434    1.2375    0.0000 C   0  0  0  0  0  0  0  0  0  0  0  0
    5.7157    2.4750    0.0000 C   0  0  0  0  0  0  0  0  0  0  0  0
   -0.7144    2.0625    0.0000 C   0  0  0  0  0  0  0  0  0  0  0  0
    7.1447    2.4750    0.0000 C   0  0  0  0  0  0  0  0  0  0  0  0
   -2.1434    2.0625    0.0000 C   0  0  0  0  0  0  0  0  0  0  0  0
    8.5736    3.3000    0.0000 C   0  0  0  0  0  0  0  0  0  0  0  0
   -3.5723    1.2375    0.0000 C   0  0  0  0  0  0  0  0  0  0  0  0
    7.8591    3.7125    0.0000 C   0  0  0  0  0  0  0  0  0  0  0  0
   -2.8578    0.8250    0.0000 C   0  0  0  0  0  0  0  0  0  0  0  0
    6.4302    2.0625    0.0000 C   0  0  0  0  0  0  0  0  0  0  0  0
   -1.4289    2.4750    0.0000 C   0  0  0  0  0  0  0  0  0  0  0  0
    5.0012    2.0625    0.0000 N   0  0  0  0  0  0  0  0  0  0  0  0
    0.0000    2.4750    0.0000 N   0  0  0  0  0  0  0  0  0  0  0  0
    9.2881    3.7125    0.0000 O   0  0  0  0  0  0  0  0  0  0  0  0
   -4.2868    0.8250    0.0000 O   0  0  0  0  0  0  0  0  0  0  0  0
    7.8591    4.5375    0.0000 O   0  0  0  0  0  0  0  0  0  0  0  0
   -2.8578    0.0000    0.0000 O   0  0  0  0  0  0  0  0  0  0  0  0
    6.4302    1.2375    0.0000 O   0  0  0  0  0  0  0  0  0  0  0  0
   -1.4289    3.3000    0.0000 O   0  0  0  0  0  0  0  0  0  0  0  0
  2  1  1  0  0  0  0
  3  1  1  0  0  0  0
  4  2  1  0  0  0  0
  7  5  2  0  0  0  0
  8  6  2  0  0  0  0
  9  3  1  0  0  0  0
 10  4  1  0  0  0  0
 15  5  1  0  0  0  0
 15 11  2  0  0  0  0
 16  6  1  0  0  0  0
 16 12  2  0  0  0  0
 17  7  1  0  0  0  0
 18  8  1  0  0  0  0
 19 11  1  0  0  0  0
 19 17  2  0  0  0  0
 20 12  1  0  0  0  0
 20 18  2  0  0  0  0
 21 13  1  0  0  0  0
 21 15  1  0  0  0  0
 22 14  1  0  0  0  0
 22 16  1  0  0  0  0
 23  9  1  0  0  0  0
 23 13  1  0  0  0  0
 24 10  1  0  0  0  0
 24 14  1  0  0  0  0
 25 17  1  0  0  0  0
 26 18  1  0  0  0  0
 27 19  1  0  0  0  0
 28 20  1  0  0  0  0
 29 21  1  0  0  0  0
 30 22  1  0  0  0  0
M  END
> <DATABASE_ID>
DB08957

> <DATABASE_NAME>
drugbank

> <SMILES>
OC(CNCCCCCCNCC(O)C1=CC(O)=C(O)C=C1)C1=CC(O)=C(O)C=C1

> <INCHI_IDENTIFIER>
InChI=1S/C22H32N2O6/c25-17-7-5-15(11-19(17)27)21(29)13-23-9-3-1-2-4-10-24-14-22(30)16-6-8-18(26)20(28)12-16/h5-8,11-12,21-30H,1-4,9-10,13-14H2

> <INCHI_KEY>
OXLZNBCNGJWPRV-UHFFFAOYSA-N

> <FORMULA>
C22H32N2O6

> <MOLECULAR_WEIGHT>
420.4993

> <EXACT_MASS>
420.226036766

> <JCHEM_ACCEPTOR_COUNT>
8

> <JCHEM_AVERAGE_POLARIZABILITY>
45.95956498304316

> <JCHEM_BIOAVAILABILITY>
0

> <JCHEM_DONOR_COUNT>
8

> <JCHEM_FORMAL_CHARGE>
0

> <JCHEM_GHOSE_FILTER>
1

> <JCHEM_IUPAC>
4-{2-[(6-{[2-(3,4-dihydroxyphenyl)-2-hydroxyethyl]amino}hexyl)amino]-1-hydroxyethyl}benzene-1,2-diol

> <ALOGPS_LOGP>
1.14

> <JCHEM_LOGP>
0.21793020466054183

> <ALOGPS_LOGS>
-3.33

> <JCHEM_MDDR_LIKE_RULE>
0

> <JCHEM_NUMBER_OF_RINGS>
2

> <JCHEM_PHYSIOLOGICAL_CHARGE>
2

> <JCHEM_PKA>
9.188558389974705

> <JCHEM_PKA_STRONGEST_ACIDIC>
8.685962897108913

> <JCHEM_PKA_STRONGEST_BASIC>
10.177128940899111

> <JCHEM_POLAR_SURFACE_AREA>
145.44

> <JCHEM_REFRACTIVITY>
115.20359999999997

> <JCHEM_ROTATABLE_BOND_COUNT>
13

> <JCHEM_RULE_OF_FIVE>
0

> <ALOGPS_SOLUBILITY>
1.99e-01 g/l

> <JCHEM_TRADITIONAL_IUPAC>
hexoprenaline

> <JCHEM_VEBER_RULE>
0

> <DRUGBANK_ID>
DB08957

> <DRUG_GROUPS>
experimental; withdrawn

> <GENERIC_NAME>
Hexoprenaline

> <INTERNATIONAL_BRANDS>
Argocian; Etoscol; Gynipral; Hexoline; Ipradol; Taicopin

> <SALTS>
Hexoprenaline sulfate

$$$$

  Mrv1572004121620582D          

 25 27  0  0  0  0            999 V2000
    0.9549    0.6952    0.0000 S   0  0  0  0  0  0  0  0  0  0  0  0
    0.2444    1.1305    0.0000 N   0  0  0  0  0  0  0  0  0  0  0  0
   -0.4736    0.7180    0.0000 C   0  0  0  0  0  0  0  0  0  0  0  0
   -1.1153    1.0694    0.0000 N   0  0  0  0  0  0  0  0  0  0  0  0
    1.6729    0.2520    0.0000 C   0  0  0  0  0  0  0  0  0  0  0  0
    1.3826    1.4056    0.0000 O   0  0  0  0  0  0  0  0  0  0  0  0
    0.5347   -0.0381    0.0000 O   0  0  0  0  0  0  0  0  0  0  0  0
   -0.4736   -0.1069    0.0000 O   0  0  0  0  0  0  0  0  0  0  0  0
    1.6729   -0.5575    0.0000 C   0  0  0  0  0  0  0  0  0  0  0  0
    2.3758    0.6646    0.0000 C   0  0  0  0  0  0  0  0  0  0  0  0
    3.0939    0.2520    0.0000 C   0  0  0  0  0  0  0  0  0  0  0  0
    2.3758   -0.9777    0.0000 C   0  0  0  0  0  0  0  0  0  0  0  0
    3.0939   -0.5575    0.0000 C   0  0  0  0  0  0  0  0  0  0  0  0
    3.8196   -0.9777    0.0000 C   0  0  0  0  0  0  0  0  0  0  0  0
   -1.8105    0.6569    0.0000 C   0  0  1  0  0  0  0  0  0  0  0  0
   -2.5209    1.0542    0.0000 C   0  0  1  0  0  0  0  0  0  0  0  0
   -1.8105   -0.1681    0.0000 C   0  0  1  0  0  0  0  0  0  0  0  0
   -3.2237    0.6417    0.0000 C   0  0  0  0  0  0  0  0  0  0  0  0
   -2.5133   -0.5806    0.0000 C   0  0  2  0  0  0  0  0  0  0  0  0
   -3.2237   -0.1832    0.0000 C   0  0  0  0  0  0  0  0  0  0  0  0
   -2.9563    0.3132    0.0000 C   0  0  0  0  0  0  0  0  0  0  0  0
   -2.7271   -1.4056    0.0000 C   0  0  0  0  0  0  0  0  0  0  0  0
   -1.0542   -0.5958    0.0000 O   0  0  0  0  0  0  0  0  0  0  0  0
   -3.8196    0.3132    0.0000 C   0  0  0  0  0  0  0  0  0  0  0  0
   -1.3215    0.3132    0.0000 C   0  0  0  0  0  0  0  0  0  0  0  0
  1  2  1  0  0  0  0
  1  5  1  0  0  0  0
  1  6  2  0  0  0  0
  1  7  2  0  0  0  0
  2  3  1  0  0  0  0
  3  4  1  0  0  0  0
  3  8  2  0  0  0  0
 15  4  1  6  0  0  0
  5  9  2  0  0  0  0
  5 10  1  0  0  0  0
  9 12  1  0  0  0  0
 10 11  2  0  0  0  0
 11 13  1  0  0  0  0
 12 13  2  0  0  0  0
 13 14  1  0  0  0  0
 15 16  1  0  0  0  0
 15 17  1  0  0  0  0
 16 18  1  0  0  0  0
 16 21  1  1  0  0  0
 17 19  1  0  0  0  0
 17 23  1  6  0  0  0
 18 20  1  0  0  0  0
 19 20  1  0  0  0  0
 19 21  1  1  0  0  0
 19 22  1  1  0  0  0
 21 24  1  0  0  0  0
 21 25  1  0  0  0  0
M  END
> <DATABASE_ID>
DB08962

> <DATABASE_NAME>
drugbank

> <SMILES>
CC1=CC=C(C=C1)S(=O)(=O)NC(=O)N[C@@H]1[C@H](O)[C@]2(C)CC[C@H]1C2(C)C

> <INCHI_IDENTIFIER>
InChI=1S/C18H26N2O4S/c1-11-5-7-12(8-6-11)25(23,24)20-16(22)19-14-13-9-10-18(4,15(14)21)17(13,2)3/h5-8,13-15,21H,9-10H2,1-4H3,(H2,19,20,22)/t13-,14+,15+,18+/m1/s1

> <INCHI_KEY>
RMTYNAPTNBJHQI-LLDVTBCESA-N

> <FORMULA>
C18H26N2O4S

> <MOLECULAR_WEIGHT>
366.48

> <EXACT_MASS>
366.161328499

> <JCHEM_ACCEPTOR_COUNT>
4

> <JCHEM_ATOM_COUNT>
51

> <JCHEM_AVERAGE_POLARIZABILITY>
38.550506349192034

> <JCHEM_BIOAVAILABILITY>
1

> <JCHEM_DONOR_COUNT>
3

> <JCHEM_FORMAL_CHARGE>
0

> <JCHEM_GHOSE_FILTER>
1

> <JCHEM_IUPAC>
3-[(1S,2S,3R,4R)-3-hydroxy-4,7,7-trimethylbicyclo[2.2.1]heptan-2-yl]-1-(4-methylbenzenesulfonyl)urea

> <ALOGPS_LOGP>
2.09

> <JCHEM_LOGP>
2.4825218886666662

> <ALOGPS_LOGS>
-3.76

> <JCHEM_MDDR_LIKE_RULE>
0

> <JCHEM_NUMBER_OF_RINGS>
3

> <JCHEM_PHYSIOLOGICAL_CHARGE>
-1

> <JCHEM_PKA>
14.181146001390353

> <JCHEM_PKA_STRONGEST_ACIDIC>
4.318726562396377

> <JCHEM_PKA_STRONGEST_BASIC>
-3.1897936587010864

> <JCHEM_POLAR_SURFACE_AREA>
95.5

> <JCHEM_REFRACTIVITY>
94.7339

> <JCHEM_ROTATABLE_BOND_COUNT>
2

> <JCHEM_RULE_OF_FIVE>
1

> <ALOGPS_SOLUBILITY>
6.35e-02 g/l

> <JCHEM_TRADITIONAL_IUPAC>
3-[(1S,2S,3R,4R)-3-hydroxy-4,7,7-trimethylbicyclo[2.2.1]heptan-2-yl]-1-(4-methylbenzenesulfonyl)urea

> <JCHEM_VEBER_RULE>
0

> <DRUGBANK_ID>
DB08962

> <DRUG_GROUPS>
investigational; withdrawn

> <GENERIC_NAME>
Glibornuride

> <SYNONYMS>
Glibornurid; Glibornurida; Glibornuride; Glibornuridum

> <INTERNATIONAL_BRANDS>
Glutril

$$$$

  Mrv1572012161520292D          

 28 28  0  0  0  0            999 V2000
   -2.5715    0.4053    0.0000 C   0  0  2  0  0  0  0  0  0  0  0  0
   -2.5715   -0.4192    0.0000 C   0  0  2  0  0  0  0  0  0  0  0  0
   -3.3686    0.6527    0.0000 C   0  0  0  0  0  0  0  0  0  0  0  0
   -1.8568    1.0233    0.0000 C   0  0  0  0  0  0  0  0  0  0  0  0
   -3.3686   -0.6940    0.0000 C   0  0  1  0  0  0  0  0  0  0  0  0
   -1.8568   -1.0373    0.0000 C   0  0  0  0  0  0  0  0  0  0  0  0
   -3.8358   -0.0344    0.0000 C   0  0  0  0  0  0  0  0  0  0  0  0
   -3.6161    1.4224    0.0000 O   0  0  0  0  0  0  0  0  0  0  0  0
   -3.6161   -1.4638    0.0000 O   0  0  0  0  0  0  0  0  0  0  0  0
   -1.1420   -0.6249    0.0000 C   0  0  0  0  0  0  0  0  0  0  0  0
   -0.4274   -1.0373    0.0000 C   0  0  2  0  0  0  0  0  0  0  0  0
    0.2872   -0.6249    0.0000 C   0  0  0  0  0  0  0  0  0  0  0  0
    1.0019   -1.0373    0.0000 C   0  0  0  0  0  0  0  0  0  0  0  0
    1.7165   -0.6249    0.0000 C   0  0  0  0  0  0  0  0  0  0  0  0
    2.4313   -1.0373    0.0000 C   0  0  0  0  0  0  0  0  0  0  0  0
    3.1459   -0.6249    0.0000 C   0  0  0  0  0  0  0  0  0  0  0  0
   -1.1552    0.6220    0.0000 C   0  0  0  0  0  0  0  0  0  0  0  0
   -0.4416    1.0341    0.0000 C   0  0  0  0  0  0  0  0  0  0  0  0
    0.2721    0.6220    0.0000 C   0  0  0  0  0  0  0  0  0  0  0  0
    0.9857    1.0341    0.0000 C   0  0  0  0  0  0  0  0  0  0  0  0
    1.6994    0.6220    0.0000 C   0  0  0  0  0  0  0  0  0  0  0  0
    2.4131    1.0341    0.0000 C   0  0  0  0  0  0  0  0  0  0  0  0
    3.1267    0.6220    0.0000 O   0  0  0  0  0  0  0  0  0  0  0  0
   -0.4275   -1.8660    0.0000 O   0  0  0  0  0  0  0  0  0  0  0  0
    0.8659   -0.0547    0.0000 C   0  0  0  0  0  0  0  0  0  0  0  0
   -0.2868   -0.0547    0.0000 C   0  0  0  0  0  0  0  0  0  0  0  0
    2.4132    1.8660    0.0000 O   0  0  0  0  0  0  0  0  0  0  0  0
    3.8358    1.0315    0.0000 C   0  0  0  0  0  0  0  0  0  0  0  0
  1  2  1  0  0  0  0
  1  3  1  0  0  0  0
  1  4  1  6  0  0  0
  2  5  1  0  0  0  0
  2  6  1  1  0  0  0
  3  7  1  0  0  0  0
  3  8  2  0  0  0  0
  5  9  1  6  0  0  0
  6 10  2  0  0  0  0
 10 11  1  0  0  0  0
 11 12  1  0  0  0  0
 12 13  1  0  0  0  0
 13 14  1  0  0  0  0
 14 15  1  0  0  0  0
 15 16  1  0  0  0  0
  5  7  1  0  0  0  0
  4 17  1  0  0  0  0
 17 18  1  0  0  0  0
 18 19  1  0  0  0  0
 19 20  1  0  0  0  0
 20 21  2  0  0  0  0
 21 22  1  0  0  0  0
 22 23  1  0  0  0  0
 11 24  1  6  0  0  0
 12 25  1  0  0  0  0
 12 26  1  0  0  0  0
 22 27  2  0  0  0  0
 23 28  1  0  0  0  0
M  END
> <DATABASE_ID>
DB08964

> <DATABASE_NAME>
drugbank

> <SMILES>
CCCCC(C)(C)[C@H](O)\C=C\[C@H]1[C@H](O)CC(=O)[C@@H]1CCCC\C=C\C(=O)OC

> <INCHI_IDENTIFIER>
InChI=1S/C23H38O5/c1-5-6-15-23(2,3)21(26)14-13-18-17(19(24)16-20(18)25)11-9-7-8-10-12-22(27)28-4/h10,12-14,17-18,20-21,25-26H,5-9,11,15-16H2,1-4H3/b12-10+,14-13+/t17-,18-,20-,21-/m1/s1

> <INCHI_KEY>
KYBOHGVERHWSSV-VNIVIJDLSA-N

> <FORMULA>
C23H38O5

> <MOLECULAR_WEIGHT>
394.552

> <EXACT_MASS>
394.271924324

> <JCHEM_ACCEPTOR_COUNT>
4

> <JCHEM_ATOM_COUNT>
66

> <JCHEM_AVERAGE_POLARIZABILITY>
46.30028757993688

> <JCHEM_BIOAVAILABILITY>
1

> <JCHEM_DONOR_COUNT>
2

> <JCHEM_FORMAL_CHARGE>
0

> <JCHEM_GHOSE_FILTER>
1

> <JCHEM_IUPAC>
methyl (2E)-7-[(1R,2R,3R)-3-hydroxy-2-[(1E,3R)-3-hydroxy-4,4-dimethyloct-1-en-1-yl]-5-oxocyclopentyl]hept-2-enoate

> <ALOGPS_LOGP>
4.02

> <JCHEM_LOGP>
4.707216349000003

> <ALOGPS_LOGS>
-4.35

> <JCHEM_MDDR_LIKE_RULE>
0

> <JCHEM_NUMBER_OF_RINGS>
1

> <JCHEM_PHYSIOLOGICAL_CHARGE>
0

> <JCHEM_PKA>
17.424965772518657

> <JCHEM_PKA_STRONGEST_ACIDIC>
14.680473082030609

> <JCHEM_PKA_STRONGEST_BASIC>
-1.1052306708791018

> <JCHEM_POLAR_SURFACE_AREA>
83.83000000000001

> <JCHEM_REFRACTIVITY>
113.05059999999997

> <JCHEM_ROTATABLE_BOND_COUNT>
13

> <JCHEM_RULE_OF_FIVE>
1

> <ALOGPS_SOLUBILITY>
1.76e-02 g/l

> <JCHEM_TRADITIONAL_IUPAC>
gemeprost

> <JCHEM_VEBER_RULE>
0

> <DRUGBANK_ID>
DB08964

> <DRUG_GROUPS>
approved; withdrawn

> <GENERIC_NAME>
Gemeprost

> <SYNONYMS>
16,16-Dimethyl-trans-delta-2-PGE1 methyl ester; 16,16-Dimethyl-trans-delta(sup 2)-prostaglandin E1 methyl ester; SC-37681

> <INTERNATIONAL_BRANDS>
Cergem; Cervagem; Cervagème; Cervidil

$$$$

  Mrv1909 02212019192D          

 51 51  0  0  0  0            999 V2000
    2.8875    2.1434    0.0000 C   0  0  0  0  0  0  0  0  0  0  0  0
    1.6500    2.8579    0.0000 C   0  0  0  0  0  0  0  0  0  0  0  0
   -3.3000    0.0000    0.0000 C   0  0  0  0  0  0  0  0  0  0  0  0
   -3.3000    1.4289    0.0000 C   0  0  0  0  0  0  0  0  0  0  0  0
    1.6500   -2.8578    0.0000 C   0  0  0  0  0  0  0  0  0  0  0  0
    0.4125   -3.5723    0.0000 C   0  0  0  0  0  0  0  0  0  0  0  0
   -1.6499    2.8579    0.0000 C   0  0  0  0  0  0  0  0  0  0  0  0
   -0.4124    3.5723    0.0000 C   0  0  0  0  0  0  0  0  0  0  0  0
    3.3000    0.0000    0.0000 C   0  0  0  0  0  0  0  0  0  0  0  0
    3.3000   -1.4289    0.0000 C   0  0  0  0  0  0  0  0  0  0  0  0
   -1.6499   -2.8578    0.0000 C   0  0  0  0  0  0  0  0  0  0  0  0
   -2.8874   -2.1433    0.0000 C   0  0  0  0  0  0  0  0  0  0  0  0
    0.4125    0.7145    0.0000 C   0  0  0  0  0  0  0  0  0  0  0  0
    0.4125   -0.7144    0.0000 C   0  0  0  0  0  0  0  0  0  0  0  0
   -0.8249    0.0000    0.0000 C   0  0  0  0  0  0  0  0  0  0  0  0
    2.0625    2.1434    0.0000 C   0  0  0  0  0  0  0  0  0  0  0  0
   -2.8874    0.7145    0.0000 C   0  0  0  0  0  0  0  0  0  0  0  0
    0.8250   -2.8578    0.0000 C   0  0  0  0  0  0  0  0  0  0  0  0
   -0.8249    2.8579    0.0000 C   0  0  0  0  0  0  0  0  0  0  0  0
    2.8875   -0.7144    0.0000 C   0  0  0  0  0  0  0  0  0  0  0  0
   -2.0624   -2.1433    0.0000 C   0  0  0  0  0  0  0  0  0  0  0  0
    1.6500    1.4289    0.0000 C   0  0  1  0  0  0  0  0  0  0  0  0
   -2.0624    0.7145    0.0000 C   0  0  1  0  0  0  0  0  0  0  0  0
    0.4125   -2.1433    0.0000 C   0  0  1  0  0  0  0  0  0  0  0  0
   -0.4124    2.1434    0.0000 C   0  0  0  0  0  0  0  0  0  0  0  0
    2.0625   -0.7144    0.0000 C   0  0  0  0  0  0  0  0  0  0  0  0
   -1.6499   -1.4289    0.0000 C   0  0  0  0  0  0  0  0  0  0  0  0
    0.4125    2.1434    0.0000 C   0  0  0  0  0  0  0  0  0  0  0  0
    1.6500   -1.4289    0.0000 C   0  0  0  0  0  0  0  0  0  0  0  0
   -2.0624   -0.7144    0.0000 C   0  0  0  0  0  0  0  0  0  0  0  0
    2.0625    0.7145    0.0000 C   0  0  0  0  0  0  0  0  0  0  0  0
   -1.6499    1.4289    0.0000 C   0  0  0  0  0  0  0  0  0  0  0  0
   -0.4124   -2.1433    0.0000 C   0  0  0  0  0  0  0  0  0  0  0  0
    0.8250    1.4289    0.0000 N   0  0  0  0  0  0  0  0  0  0  0  0
    0.8250   -1.4289    0.0000 N   0  0  0  0  0  0  0  0  0  0  0  0
   -1.6499    0.0000    0.0000 N   0  0  0  0  0  0  0  0  0  0  0  0
    0.8250    2.8579    0.0000 O   0  0  0  0  0  0  0  0  0  0  0  0
    2.0625   -2.1433    0.0000 O   0  0  0  0  0  0  0  0  0  0  0  0
   -2.8874   -0.7144    0.0000 O   0  0  0  0  0  0  0  0  0  0  0  0
    2.8875    0.7145    0.0000 O   0  0  0  0  0  0  0  0  0  0  0  0
   -2.0624    2.1434    0.0000 O   0  0  0  0  0  0  0  0  0  0  0  0
   -0.8249   -2.8578    0.0000 O   0  0  0  0  0  0  0  0  0  0  0  0
    1.6500    0.0000    0.0000 O   0  0  0  0  0  0  0  0  0  0  0  0
   -0.8249    1.4289    0.0000 O   0  0  0  0  0  0  0  0  0  0  0  0
   -0.8249   -1.4289    0.0000 O   0  0  0  0  0  0  0  0  0  0  0  0
    2.4750    1.4289    0.0000 H   0  0  0  0  0  0  0  0  0  0  0  0
   -2.4749    0.0000    0.0000 H   0  0  0  0  0  0  0  0  0  0  0  0
    1.2375   -2.1433    0.0000 H   0  0  0  0  0  0  0  0  0  0  0  0
   -1.2374    2.1434    0.0000 H   0  0  0  0  0  0  0  0  0  0  0  0
    2.4750    0.0000    0.0000 H   0  0  0  0  0  0  0  0  0  0  0  0
   -1.2527   -2.0819    0.0000 H   0  0  0  0  0  0  0  0  0  0  0  0
 16  1  1  0  0  0  0
 16  2  1  0  0  0  0
 17  3  1  0  0  0  0
 17  4  1  0  0  0  0
 18  5  1  0  0  0  0
 18  6  1  0  0  0  0
 19  7  1  0  0  0  0
 19  8  1  0  0  0  0
 20  9  1  0  0  0  0
 20 10  1  0  0  0  0
 21 11  1  0  0  0  0
 21 12  1  0  0  0  0
 22 16  1  1  0  0  0
 23 17  1  1  0  0  0
 24 18  1  1  0  0  0
 25 19  1  0  0  0  0
 26 20  1  0  0  0  0
 27 21  1  0  0  0  0
 28 25  1  0  0  0  0
 29 26  1  0  0  0  0
 30 27  1  0  0  0  0
 31 22  1  0  0  0  0
 32 23  1  0  0  0  0
 33 24  1  0  0  0  0
 34 13  1  0  0  0  0
 34 22  1  0  0  0  0
 34 28  1  0  0  0  0
 35 14  1  0  0  0  0
 35 24  1  0  0  0  0
 35 29  1  0  0  0  0
 36 15  1  0  0  0  0
 36 23  1  0  0  0  0
 36 30  1  0  0  0  0
 37 28  2  0  0  0  0
 38 29  2  0  0  0  0
 39 30  2  0  0  0  0
 40 31  2  0  0  0  0
 41 32  2  0  0  0  0
 42 33  2  0  0  0  0
 43 26  1  0  0  0  0
 43 31  1  0  0  0  0
 44 25  1  0  0  0  0
 44 32  1  0  0  0  0
 45 27  1  0  0  0  0
 45 33  1  0  0  0  0
 22 46  1  6  0  0  0
 23 47  1  6  0  0  0
 24 48  1  6  0  0  0
 49 25  1  0  0  0  0
 50 26  1  0  0  0  0
 51 27  1  0  0  0  0
M  END
> <DATABASE_ID>
DB08965

> <DATABASE_NAME>
drugbank

> <SMILES>
[H]C1(OC(=O)[C@]([H])(C(C)C)N(C)C(=O)C([H])(OC(=O)[C@]([H])(C(C)C)N(C)C(=O)C([H])(OC(=O)[C@]([H])(C(C)C)N(C)C1=O)C(C)C)C(C)C)C(C)C

> <INCHI_IDENTIFIER>
InChI=1S/C33H57N3O9/c1-16(2)22-31(40)43-26(20(9)10)29(38)35(14)24(18(5)6)33(42)45-27(21(11)12)30(39)36(15)23(17(3)4)32(41)44-25(19(7)8)28(37)34(22)13/h16-27H,1-15H3/t22-,23-,24-,25?,26?,27?/m0/s1

> <INCHI_KEY>
MIZMDSVSLSIMSC-OGLSAIDSSA-N

> <FORMULA>
C33H57N3O9

> <MOLECULAR_WEIGHT>
639.8204

> <EXACT_MASS>
639.409480437

> <JCHEM_ACCEPTOR_COUNT>
6

> <JCHEM_ATOM_COUNT>
102

> <JCHEM_AVERAGE_NEUTRAL_MICROSPECIES_CHARGE>
-2.278702276689286e-12

> <JCHEM_AVERAGE_POLARIZABILITY>
69.26911400288986

> <JCHEM_BIOAVAILABILITY>
1

> <JCHEM_DONOR_COUNT>
0

> <JCHEM_FORMAL_CHARGE>
0

> <JCHEM_GHOSE_FILTER>
0

> <JCHEM_IUPAC>
(3S,9S,15S)-4,10,16-trimethyl-3,6,9,12,15,18-hexakis(propan-2-yl)-1,7,13-trioxa-4,10,16-triazacyclooctadecane-2,5,8,11,14,17-hexone

> <ALOGPS_LOGP>
3.81

> <JCHEM_LOGP>
4.964367353

> <ALOGPS_LOGS>
-4.54

> <JCHEM_MDDR_LIKE_RULE>
0

> <JCHEM_NEUTRAL_CHARGE>
0

> <JCHEM_NUMBER_OF_RINGS>
1

> <JCHEM_PHYSIOLOGICAL_CHARGE>
0

> <JCHEM_PKA>
19.279295896206495

> <JCHEM_PKA_STRONGEST_ACIDIC>
18.8019123820987

> <JCHEM_PKA_STRONGEST_BASIC>
-5.404252844249662

> <JCHEM_POLAR_SURFACE_AREA>
139.82999999999998

> <JCHEM_REFRACTIVITY>
166.59870000000015

> <JCHEM_ROTATABLE_BOND_COUNT>
6

> <JCHEM_RULE_OF_FIVE>
0

> <ALOGPS_SOLUBILITY>
1.84e-02 g/l

> <JCHEM_TRADITIONAL_IUPAC>
(5Z,7E)-deca-5,7,9-trien-2-one

> <JCHEM_VEBER_RULE>
0

> <DRUGBANK_ID>
DB08965

> <DRUG_GROUPS>
approved; withdrawn

> <GENERIC_NAME>
Fusafungine

> <SYNONYMS>
Fusafungina; Fusafungine

$$$$

  Mrv1718001081909232D          

 28 30  0  0  0  0            999 V2000
    1.7849   -2.4751    0.0000 Cl  0  0  0  0  0  0  0  0  0  0  0  0
   -0.3550    1.2451    0.0000 O   0  0  0  0  0  0  0  0  0  0  0  0
   -2.5000   -1.6500    0.0000 O   0  0  0  0  0  0  0  0  0  0  0  0
   -1.7850    1.2451    0.0000 O   0  0  0  0  0  0  0  0  0  0  0  0
    0.3549    0.0000    0.0000 N   0  0  0  0  0  0  0  0  0  0  0  0
   -0.3550   -1.2400    0.0000 N   0  0  0  0  0  0  0  0  0  0  0  0
   -1.7850   -0.4150    0.0000 N   0  0  0  0  0  0  0  0  0  0  0  0
    1.0700   -1.2400    0.0000 C   0  0  0  0  0  0  0  0  0  0  0  0
    1.0700   -0.4049    0.0000 C   0  0  0  0  0  0  0  0  0  0  0  0
    1.7849   -1.6500    0.0000 C   0  0  0  0  0  0  0  0  0  0  0  0
    0.3549   -1.6500    0.0000 C   0  0  0  0  0  0  0  0  0  0  0  0
    1.7849    0.0000    0.0000 C   0  0  0  0  0  0  0  0  0  0  0  0
    0.3549    0.8250    0.0000 C   0  0  0  0  0  0  0  0  0  0  0  0
    2.5000   -1.2400    0.0000 C   0  0  0  0  0  0  0  0  0  0  0  0
    1.0700    1.2451    0.0000 C   0  0  0  0  0  0  0  0  0  0  0  0
   -1.7850   -1.2400    0.0000 C   0  0  0  0  0  0  0  0  0  0  0  0
    2.5000   -0.4150    0.0000 C   0  0  0  0  0  0  0  0  0  0  0  0
   -1.0699   -1.6500    0.0000 C   0  0  0  0  0  0  0  0  0  0  0  0
    1.7849    0.8250    0.0000 C   0  0  0  0  0  0  0  0  0  0  0  0
    1.0700    2.0701    0.0000 C   0  0  0  0  0  0  0  0  0  0  0  0
   -2.5000    0.0000    0.0000 C   0  0  0  0  0  0  0  0  0  0  0  0
   -1.0699    0.0000    0.0000 C   0  0  0  0  0  0  0  0  0  0  0  0
   -0.3550   -0.4049    0.0000 C   0  0  0  0  0  0  0  0  0  0  0  0
   -2.5000    0.8250    0.0000 C   0  0  0  0  0  0  0  0  0  0  0  0
   -1.0699    0.8250    0.0000 C   0  0  0  0  0  0  0  0  0  0  0  0
    2.5000    1.2451    0.0000 C   0  0  0  0  0  0  0  0  0  0  0  0
    1.7849    2.4751    0.0000 C   0  0  0  0  0  0  0  0  0  0  0  0
    2.5000    2.0701    0.0000 C   0  0  0  0  0  0  0  0  0  0  0  0
  1 10  1  0  0  0  0
  2 13  2  0  0  0  0
  3 16  2  0  0  0  0
  4 24  1  0  0  0  0
  4 25  1  0  0  0  0
  5  9  1  0  0  0  0
  5 13  1  0  0  0  0
  6 11  1  0  0  0  0
  6 18  1  0  0  0  0
  6 23  1  0  0  0  0
  7 16  1  0  0  0  0
  7 21  1  0  0  0  0
  7 22  1  0  0  0  0
  8  9  1  0  0  0  0
  8 10  2  0  0  0  0
  8 11  1  0  0  0  0
  9 12  2  0  0  0  0
 10 14  1  0  0  0  0
 12 17  1  0  0  0  0
 13 15  1  0  0  0  0
 14 17  2  0  0  0  0
 15 19  2  0  0  0  0
 15 20  1  0  0  0  0
 16 18  1  0  0  0  0
 19 26  1  0  0  0  0
 20 27  2  0  0  0  0
 21 24  1  0  0  0  0
 22 25  1  0  0  0  0
 26 28  2  0  0  0  0
 27 28  1  0  0  0  0
M  END
> <DATABASE_ID>
DB08968

> <DATABASE_NAME>
drugbank

> <SMILES>
CN(CC(=O)N1CCOCC1)CC1=C(Cl)C=CC=C1NC(=O)C1=CC=CC=C1

> <INCHI_IDENTIFIER>
InChI=1S/C21H24ClN3O3/c1-24(15-20(26)25-10-12-28-13-11-25)14-17-18(22)8-5-9-19(17)23-21(27)16-6-3-2-4-7-16/h2-9H,10-15H2,1H3,(H,23,27)

> <INCHI_KEY>
KSNNEUZOAFRTDS-UHFFFAOYSA-N

> <FORMULA>
C21H24ClN3O3

> <MOLECULAR_WEIGHT>
401.887

> <EXACT_MASS>
401.150619356

> <JCHEM_ACCEPTOR_COUNT>
4

> <JCHEM_ATOM_COUNT>
52

> <JCHEM_AVERAGE_POLARIZABILITY>
42.157548918571436

> <JCHEM_BIOAVAILABILITY>
1

> <JCHEM_DONOR_COUNT>
1

> <JCHEM_FORMAL_CHARGE>
0

> <JCHEM_GHOSE_FILTER>
1

> <JCHEM_IUPAC>
N-[3-chloro-2-({methyl[2-(morpholin-4-yl)-2-oxoethyl]amino}methyl)phenyl]benzamide

> <ALOGPS_LOGP>
2.96

> <JCHEM_LOGP>
2.510464439333333

> <ALOGPS_LOGS>
-4.12

> <JCHEM_MDDR_LIKE_RULE>
1

> <JCHEM_NUMBER_OF_RINGS>
3

> <JCHEM_PHYSIOLOGICAL_CHARGE>
0

> <JCHEM_PKA_STRONGEST_ACIDIC>
15.4929806142564

> <JCHEM_PKA_STRONGEST_BASIC>
5.545110024892041

> <JCHEM_POLAR_SURFACE_AREA>
61.88000000000001

> <JCHEM_REFRACTIVITY>
111.7137

> <JCHEM_ROTATABLE_BOND_COUNT>
6

> <JCHEM_RULE_OF_FIVE>
1

> <ALOGPS_SOLUBILITY>
3.03e-02 g/l

> <JCHEM_TRADITIONAL_IUPAC>
fominoben

> <JCHEM_VEBER_RULE>
0

> <DRUGBANK_ID>
DB08968

> <DRUG_GROUPS>
experimental; withdrawn

> <GENERIC_NAME>
Fominoben

> <SYNONYMS>
Fominoben; Fominobene; Fominobenum

> <INTERNATIONAL_BRANDS>
Noleptan; Terion

> <SALTS>
Fominoben hydrochloride

$$$$

  Mrv0541 06091409042D          

 11 10  0  0  0  0            999 V2000
   -0.4125   -0.7144    0.0000 C   0  0  0  0  0  0  0  0  0  0  0  0
    0.8250    0.0000    0.0000 C   0  0  0  0  0  0  0  0  0  0  0  0
   -1.2375   -0.7144    0.0000 C   0  0  0  0  0  0  0  0  0  0  0  0
    1.2375    0.7144    0.0000 C   0  0  0  0  0  0  0  0  0  0  0  0
   -2.0625   -0.7144    0.0000 F   0  0  0  0  0  0  0  0  0  0  0  0
   -1.2375   -1.5394    0.0000 F   0  0  0  0  0  0  0  0  0  0  0  0
   -1.2375    0.1105    0.0000 F   0  0  0  0  0  0  0  0  0  0  0  0
    1.6500    1.4289    0.0000 F   0  0  0  0  0  0  0  0  0  0  0  0
    1.9519    0.3019    0.0000 F   0  0  0  0  0  0  0  0  0  0  0  0
    0.5230    1.1269    0.0000 F   0  0  0  0  0  0  0  0  0  0  0  0
    0.0000    0.0000    0.0000 O   0  0  0  0  0  0  0  0  0  0  0  0
  3  1  1  0  0  0  0
  4  2  1  0  0  0  0
  5  3  1  0  0  0  0
  6  3  1  0  0  0  0
  7  3  1  0  0  0  0
  8  4  1  0  0  0  0
  9  4  1  0  0  0  0
 10  4  1  0  0  0  0
 11  1  1  0  0  0  0
 11  2  1  0  0  0  0
M  END
> <DATABASE_ID>
DB08969

> <DATABASE_NAME>
drugbank

> <SMILES>
FC(F)(F)COCC(F)(F)F

> <INCHI_IDENTIFIER>
InChI=1S/C4H4F6O/c5-3(6,7)1-11-2-4(8,9)10/h1-2H2

> <INCHI_KEY>
KGPPDNUWZNWPSI-UHFFFAOYSA-N

> <FORMULA>
C4H4F6O

> <MOLECULAR_WEIGHT>
182.0644

> <EXACT_MASS>
182.01663398

> <JCHEM_ACCEPTOR_COUNT>
1

> <JCHEM_AVERAGE_POLARIZABILITY>
9.939935139185026

> <JCHEM_BIOAVAILABILITY>
1

> <JCHEM_DONOR_COUNT>
0

> <JCHEM_FORMAL_CHARGE>
0

> <JCHEM_GHOSE_FILTER>
0

> <JCHEM_IUPAC>
1,1,1-trifluoro-2-(2,2,2-trifluoroethoxy)ethane

> <ALOGPS_LOGP>
1.94

> <JCHEM_LOGP>
2.0347419089999996

> <ALOGPS_LOGS>
-1.93

> <JCHEM_MDDR_LIKE_RULE>
0

> <JCHEM_NUMBER_OF_RINGS>
0

> <JCHEM_PHYSIOLOGICAL_CHARGE>
0

> <JCHEM_PKA_STRONGEST_BASIC>
-4.249105797899077

> <JCHEM_POLAR_SURFACE_AREA>
9.23

> <JCHEM_REFRACTIVITY>
23.912699999999997

> <JCHEM_ROTATABLE_BOND_COUNT>
4

> <JCHEM_RULE_OF_FIVE>
1

> <ALOGPS_SOLUBILITY>
2.14e+00 g/l

> <JCHEM_TRADITIONAL_IUPAC>
flurothyl

> <JCHEM_VEBER_RULE>
1

> <DRUGBANK_ID>
DB08969

> <DRUG_GROUPS>
withdrawn

> <GENERIC_NAME>
Flurothyl

> <SYNONYMS>
Flurotyl

$$$$

  Mrv1909 08212016342D          

 30 33  0  0  0  0            999 V2000
    1.0688    1.6596    0.0000 C   0  0  0  0  0  0  0  0  0  0  0  0
    1.0688    0.8345    0.0000 C   0  0  2  0  0  0  0  0  0  0  0  0
    1.0688    0.0009    0.0000 C   0  0  2  0  0  0  0  0  0  0  0  0
    1.7813    1.2500    0.0000 C   0  0  1  0  0  0  0  0  0  0  0  0
    0.3563    1.2500    0.0000 C   0  0  0  0  0  0  0  0  0  0  0  0
    0.3563   -0.4146    0.0000 C   0  0  1  0  0  0  0  0  0  0  0  0
    2.4940    0.0009    0.0000 C   0  0  0  0  0  0  0  0  0  0  0  0
    1.7813    2.0751    0.0000 C   0  0  0  0  0  0  0  0  0  0  0  0
    2.4940    0.8345    0.0000 C   0  0  1  0  0  0  0  0  0  0  0  0
   -0.3584    0.8345    0.0000 C   0  0  1  0  0  0  0  0  0  0  0  0
   -0.3584    0.0009    0.0000 C   0  0  2  0  0  0  0  0  0  0  0  0
    0.3563   -1.2459    0.0000 C   0  0  0  0  0  0  0  0  0  0  0  0
    2.4960    2.4868    0.0000 C   0  0  0  0  0  0  0  0  0  0  0  0
    1.0668    2.4868    0.0000 O   0  0  0  0  0  0  0  0  0  0  0  0
    3.2085    1.2459    0.0000 C   0  0  0  0  0  0  0  0  0  0  0  0
   -1.0729    1.2459    0.0000 O   0  0  0  0  0  0  0  0  0  0  0  0
   -1.0709   -0.4146    0.0000 C   0  0  2  0  0  0  0  0  0  0  0  0
   -0.3584   -1.6616    0.0000 C   0  0  1  0  0  0  0  0  0  0  0  0
    3.2106    2.0751    0.0000 O   0  0  0  0  0  0  0  0  0  0  0  0
   -1.0709    0.4105    0.0000 C   0  0  0  0  0  0  0  0  0  0  0  0
   -1.0709   -1.2459    0.0000 C   0  0  0  0  0  0  0  0  0  0  0  0
   -1.7834    0.0009    0.0000 C   0  0  0  0  0  0  0  0  0  0  0  0
   -0.3584   -2.4868    0.0000 F   0  0  0  0  0  0  0  0  0  0  0  0
   -1.7834   -1.6616    0.0000 C   0  0  0  0  0  0  0  0  0  0  0  0
   -2.4960   -0.4146    0.0000 C   0  0  0  0  0  0  0  0  0  0  0  0
   -2.4960   -1.2459    0.0000 C   0  0  0  0  0  0  0  0  0  0  0  0
   -3.2106   -1.6574    0.0000 O   0  0  0  0  0  0  0  0  0  0  0  0
    0.3563    0.4105    0.0000 H   0  0  0  0  0  0  0  0  0  0  0  0
   -0.3584   -0.8240    0.0000 H   0  0  0  0  0  0  0  0  0  0  0  0
    1.0688   -0.8240    0.0000 H   0  0  0  0  0  0  0  0  0  0  0  0
  2  1  1  1  0  0  0
  3  2  1  0  0  0  0
  2  4  1  0  0  0  0
  2  5  1  0  0  0  0
  6  3  1  0  0  0  0
  3  7  1  0  0  0  0
  3 30  1  6  0  0  0
  4  8  1  1  0  0  0
  4  9  1  0  0  0  0
 10  5  1  0  0  0  0
 11  6  1  0  0  0  0
  6 12  1  0  0  0  0
  6 28  1  1  0  0  0
  9  7  1  0  0  0  0
  8 13  1  0  0  0  0
  8 14  2  0  0  0  0
  9 15  1  6  0  0  0
 11 10  1  0  0  0  0
 10 16  1  1  0  0  0
 11 17  1  0  0  0  0
 11 29  1  6  0  0  0
 18 12  1  0  0  0  0
 13 19  1  0  0  0  0
 17 20  1  1  0  0  0
 17 21  1  0  0  0  0
 17 22  1  0  0  0  0
 18 21  1  0  0  0  0
 18 23  1  6  0  0  0
 21 24  2  0  0  0  0
 22 25  2  0  0  0  0
 24 26  1  0  0  0  0
 25 26  1  0  0  0  0
 26 27  2  0  0  0  0
M  END
> <DATABASE_ID>
DB08971

> <DATABASE_NAME>
drugbank

> <SMILES>
[H][C@@]12C[C@@H](C)[C@H](C(=O)CO)[C@@]1(C)C[C@H](O)[C@@]1([H])[C@@]2([H])C[C@H](F)C2=CC(=O)C=C[C@]12C

> <INCHI_IDENTIFIER>
InChI=1S/C22H29FO4/c1-11-6-14-13-8-16(23)15-7-12(25)4-5-21(15,2)20(13)17(26)9-22(14,3)19(11)18(27)10-24/h4-5,7,11,13-14,16-17,19-20,24,26H,6,8-10H2,1-3H3/t11-,13+,14+,16+,17+,19-,20-,21+,22+/m1/s1

> <INCHI_KEY>
GAKMQHDJQHZUTJ-ULHLPKEOSA-N

> <FORMULA>
C22H29FO4

> <MOLECULAR_WEIGHT>
376.4617

> <EXACT_MASS>
376.204987621

> <JCHEM_ACCEPTOR_COUNT>
4

> <JCHEM_ATOM_COUNT>
56

> <JCHEM_AVERAGE_NEUTRAL_MICROSPECIES_CHARGE>
-9.182339367466701e-08

> <JCHEM_AVERAGE_POLARIZABILITY>
40.1356716363557

> <JCHEM_BIOAVAILABILITY>
1

> <JCHEM_DONOR_COUNT>
2

> <JCHEM_FORMAL_CHARGE>
0

> <JCHEM_GHOSE_FILTER>
1

> <JCHEM_IUPAC>
(1S,2R,3aS,3bS,5S,9aR,9bS,10S,11aS)-5-fluoro-10-hydroxy-1-(2-hydroxyacetyl)-2,9a,11a-trimethyl-1H,2H,3H,3aH,3bH,4H,5H,7H,9aH,9bH,10H,11H,11aH-cyclopenta[a]phenanthren-7-one

> <ALOGPS_LOGP>
2.09

> <JCHEM_LOGP>
1.9677148506666664

> <ALOGPS_LOGS>
-4.05

> <JCHEM_MDDR_LIKE_RULE>
0

> <JCHEM_NEUTRAL_CHARGE>
0

> <JCHEM_NUMBER_OF_RINGS>
4

> <JCHEM_PHYSIOLOGICAL_CHARGE>
0

> <JCHEM_PKA>
15.174145968482895

> <JCHEM_PKA_STRONGEST_ACIDIC>
13.84259641743626

> <JCHEM_PKA_STRONGEST_BASIC>
-0.23280733669670658

> <JCHEM_POLAR_SURFACE_AREA>
74.6

> <JCHEM_REFRACTIVITY>
101.46529999999997

> <JCHEM_ROTATABLE_BOND_COUNT>
2

> <JCHEM_RULE_OF_FIVE>
1

> <ALOGPS_SOLUBILITY>
3.39e-02 g/l

> <JCHEM_TRADITIONAL_IUPAC>
unii-71TH42O2CQ

> <JCHEM_VEBER_RULE>
0

> <DRUGBANK_ID>
DB08971

> <DRUG_GROUPS>
approved; withdrawn

> <GENERIC_NAME>
Fluocortolone

> <SYNONYMS>
Fluocortolona

$$$$

  Mrv0541 09131211462D          

 19 21  0  0  0  0            999 V2000
    0.0000    0.0000    0.0000 C   0  0  0  0  0  0  0  0  0  0  0  0
   -0.7145    1.2375    0.0000 C   0  0  0  0  0  0  0  0  0  0  0  0
   -0.7145    2.0625    0.0000 C   0  0  0  0  0  0  0  0  0  0  0  0
    0.0000    3.3000    0.0000 C   0  0  0  0  0  0  0  0  0  0  0  0
    1.4289    3.3000    0.0000 C   0  0  0  0  0  0  0  0  0  0  0  0
    1.4289    0.8250    0.0000 C   0  0  0  0  0  0  0  0  0  0  0  0
    0.0000    0.8250    0.0000 C   0  0  0  0  0  0  0  0  0  0  0  0
    0.0000    2.4750    0.0000 C   0  0  0  0  0  0  0  0  0  0  0  0
    0.7145    3.7125    0.0000 C   0  0  0  0  0  0  0  0  0  0  0  0
    1.4289    2.4750    0.0000 C   0  0  0  0  0  0  0  0  0  0  0  0
    2.1434    1.2375    0.0000 C   0  0  0  0  0  0  0  0  0  0  0  0
    0.7145    2.0625    0.0000 C   0  0  0  0  0  0  0  0  0  0  0  0
    2.1434    2.0625    0.0000 C   0  0  0  0  0  0  0  0  0  0  0  0
    2.8579    0.8250    0.0000 C   0  0  0  0  0  0  0  0  0  0  0  0
    0.7145    4.5375    0.0000 F   0  0  0  0  0  0  0  0  0  0  0  0
    0.7145    1.2375    0.0000 N   0  0  0  0  0  0  0  0  0  0  0  0
    2.8579    2.4750    0.0000 O   0  0  0  0  0  0  0  0  0  0  0  0
    3.5724    1.2375    0.0000 O   0  0  0  0  0  0  0  0  0  0  0  0
    2.8579    0.0000    0.0000 O   0  0  0  0  0  0  0  0  0  0  0  0
  3  2  1  0  0  0  0
  7  1  1  0  0  0  0
  7  2  1  0  0  0  0
  8  3  1  0  0  0  0
  8  4  2  0  0  0  0
  9  4  1  0  0  0  0
  9  5  2  0  0  0  0
 10  5  1  0  0  0  0
 11  6  2  0  0  0  0
 12  8  1  0  0  0  0
 12 10  2  0  0  0  0
 13 10  1  0  0  0  0
 13 11  1  0  0  0  0
 14 11  1  0  0  0  0
 15  9  1  0  0  0  0
 16  6  1  0  0  0  0
 16  7  1  0  0  0  0
 16 12  1  0  0  0  0
 17 13  2  0  0  0  0
 18 14  2  0  0  0  0
 19 14  1  0  0  0  0
M  END
> <DATABASE_ID>
DB08972

> <DATABASE_NAME>
drugbank

> <SMILES>
CC1CCC2=CC(F)=CC3=C2N1C=C(C(O)=O)C3=O

> <INCHI_IDENTIFIER>
InChI=1S/C14H12FNO3/c1-7-2-3-8-4-9(15)5-10-12(8)16(7)6-11(13(10)17)14(18)19/h4-7H,2-3H2,1H3,(H,18,19)

> <INCHI_KEY>
DPSPPJIUMHPXMA-UHFFFAOYSA-N

> <FORMULA>
C14H12FNO3

> <MOLECULAR_WEIGHT>
261.2484

> <EXACT_MASS>
261.08012146

> <JCHEM_ACCEPTOR_COUNT>
4

> <JCHEM_AVERAGE_POLARIZABILITY>
25.246669797951256

> <JCHEM_BIOAVAILABILITY>
1

> <JCHEM_DONOR_COUNT>
1

> <JCHEM_FORMAL_CHARGE>
0

> <JCHEM_GHOSE_FILTER>
1

> <JCHEM_IUPAC>
7-fluoro-12-methyl-4-oxo-1-azatricyclo[7.3.1.0⁵,¹³]trideca-2,5(13),6,8-tetraene-3-carboxylic acid

> <ALOGPS_LOGP>
1.62

> <JCHEM_LOGP>
2.416839571

> <ALOGPS_LOGS>
-2.32

> <JCHEM_MDDR_LIKE_RULE>
0

> <JCHEM_NUMBER_OF_RINGS>
3

> <JCHEM_PHYSIOLOGICAL_CHARGE>
-1

> <JCHEM_PKA_STRONGEST_ACIDIC>
6.004770867103982

> <JCHEM_PKA_STRONGEST_BASIC>
-4.310946343966191

> <JCHEM_POLAR_SURFACE_AREA>
57.61

> <JCHEM_REFRACTIVITY>
67.8736

> <JCHEM_ROTATABLE_BOND_COUNT>
1

> <JCHEM_RULE_OF_FIVE>
1

> <ALOGPS_SOLUBILITY>
1.24e+00 g/l

> <JCHEM_TRADITIONAL_IUPAC>
flumequine

> <JCHEM_VEBER_RULE>
0

> <DRUGBANK_ID>
DB08972

> <DRUG_GROUPS>
withdrawn

> <GENERIC_NAME>
Flumequine

> <SYNONYMS>
Flumequine

$$$$

  Mrv1572012161520342D          

 35 39  0  0  0  0            999 V2000
   -2.9056   -2.0855    0.0000 C   0  0  0  0  0  0  0  0  0  0  0  0
   -2.7424   -1.2786    0.0000 C   0  0  0  0  0  0  0  0  0  0  0  0
   -2.7523   -0.4550    0.0000 O   0  0  0  0  0  0  0  0  0  0  0  0
   -1.9679   -0.1956    0.0000 C   0  0  2  0  0  0  0  0  0  0  0  0
   -1.4875    0.4798    0.0000 C   0  0  0  0  0  0  0  0  0  0  0  0
   -0.7049    0.2347    0.0000 C   0  0  1  0  0  0  0  0  0  0  0  0
    0.0066    0.6515    0.0000 C   0  0  2  0  0  0  0  0  0  0  0  0
   -0.0032    1.4753    0.0000 C   0  0  0  0  0  0  0  0  0  0  0  0
    0.7040    1.8964    0.0000 C   0  0  1  0  0  0  0  0  0  0  0  0
    1.4257    1.4894    0.0000 C   0  0  0  0  0  0  0  0  0  0  0  0
    2.1331    1.9107    0.0000 C   0  0  0  0  0  0  0  0  0  0  0  0
    2.8548    1.5039    0.0000 C   0  0  0  0  0  0  0  0  0  0  0  0
    3.5665    1.9250    0.0000 O   0  0  0  0  0  0  0  0  0  0  0  0
    2.8612    0.6822    0.0000 C   0  0  0  0  0  0  0  0  0  0  0  0
    2.1537    0.2610    0.0000 C   0  0  0  0  0  0  0  0  0  0  0  0
    1.4322    0.6637    0.0000 C   0  0  2  0  0  0  0  0  0  0  0  0
    0.7203    0.2468    0.0000 C   0  0  1  0  0  0  0  0  0  0  0  0
    0.7347   -0.5768    0.0000 C   0  0  2  0  0  0  0  0  0  0  0  0
    0.0230   -0.9938    0.0000 C   0  0  0  0  0  0  0  0  0  0  0  0
   -0.6986   -0.5911    0.0000 C   0  0  2  0  0  0  0  0  0  0  0  0
   -1.4788   -0.8545    0.0000 C   0  0  2  0  0  0  0  0  0  0  0  0
   -1.9554   -1.5236    0.0000 O   0  0  0  0  0  0  0  0  0  0  0  0
   -0.8871   -2.0326    0.0000 C   0  0  0  0  0  0  0  0  0  0  0  0
   -0.0638   -2.0815    0.0000 O   0  0  0  0  0  0  0  0  0  0  0  0
   -1.3443   -2.7224    0.0000 C   0  0  0  0  0  0  0  0  0  0  0  0
   -2.1674   -2.6735    0.0000 O   0  0  0  0  0  0  0  0  0  0  0  0
   -0.6269   -1.4151    0.0000 C   0  0  0  0  0  0  0  0  0  0  0  0
    1.2647   -1.2047    0.0000 Cl  0  0  0  0  0  0  0  0  0  0  0  0
    1.8773   -0.4012    0.0000 Cl  0  0  0  0  0  0  0  0  0  0  0  0
    0.6976    2.7224    0.0000 F   0  0  0  0  0  0  0  0  0  0  0  0
   -3.5665   -1.2025    0.0000 C   0  0  0  0  0  0  0  0  0  0  0  0
    0.6781    1.1010    0.0000 C   0  0  0  0  0  0  0  0  0  0  0  0
   -0.7130    1.0882    0.0000 H   0  0  0  0  0  0  0  0  0  0  0  0
   -2.5765    0.4096    0.0000 H   0  0  0  0  0  0  0  0  0  0  0  0
   -0.0002   -0.1956    0.0000 H   0  0  0  0  0  0  0  0  0  0  0  0
  4  5  1  0  0  0  0
  6  5  1  0  0  0  0
  6  7  1  0  0  0  0
  7  8  1  0  0  0  0
  8  9  1  0  0  0  0
  9 10  1  0  0  0  0
 10 11  2  0  0  0  0
 11 12  1  0  0  0  0
 12 13  2  0  0  0  0
 12 14  1  0  0  0  0
 14 15  2  0  0  0  0
 15 16  1  0  0  0  0
 10 16  1  0  0  0  0
 16 17  1  0  0  0  0
  7 17  1  0  0  0  0
 17 18  1  0  0  0  0
 18 19  1  0  0  0  0
 19 20  1  0  0  0  0
  6 20  1  0  0  0  0
 20 21  1  0  0  0  0
  4 21  1  0  0  0  0
 21 22  1  0  0  0  0
  2 22  1  0  0  0  0
 21 23  1  1  0  0  0
 23 24  2  0  0  0  0
 23 25  1  0  0  0  0
 25 26  1  0  0  0  0
 20 27  1  1  0  0  0
 18 28  1  1  0  0  0
 17 29  1  6  0  0  0
  9 30  1  6  0  0  0
  2 31  1  0  0  0  0
 16 32  1  1  0  0  0
  1  2  1  0  0  0  0
  6 33  1  6  0  0  0
  2  3  1  0  0  0  0
  4 34  1  1  0  0  0
  4  3  1  0  0  0  0
  7 35  1  1  0  0  0
M  END
> <DATABASE_ID>
DB08973

> <DATABASE_NAME>
drugbank

> <SMILES>
[H][C@@]12C[C@@]3([H])[C@]4([H])C[C@H](F)C5=CC(=O)C=C[C@]5(C)[C@@]4(Cl)[C@@H](Cl)C[C@]3(C)[C@@]1(OC(C)(C)O2)C(=O)CO

> <INCHI_IDENTIFIER>
InChI=1S/C24H29Cl2FO5/c1-20(2)31-19-9-13-14-8-16(27)15-7-12(29)5-6-21(15,3)23(14,26)17(25)10-22(13,4)24(19,32-20)18(30)11-28/h5-7,13-14,16-17,19,28H,8-11H2,1-4H3/t13-,14-,16-,17-,19+,21-,22-,23-,24+/m0/s1

> <INCHI_KEY>
NJNWEGFJCGYWQT-VSXGLTOVSA-N

> <FORMULA>
C24H29Cl2FO5

> <MOLECULAR_WEIGHT>
487.39

> <EXACT_MASS>
486.1376076

> <JCHEM_ACCEPTOR_COUNT>
5

> <JCHEM_ATOM_COUNT>
61

> <JCHEM_AVERAGE_POLARIZABILITY>
47.43796933658143

> <JCHEM_BIOAVAILABILITY>
1

> <JCHEM_DONOR_COUNT>
1

> <JCHEM_FORMAL_CHARGE>
0

> <JCHEM_GHOSE_FILTER>
0

> <JCHEM_IUPAC>
(1S,2S,4R,8S,9S,11S,12R,13S,19S)-11,12-dichloro-19-fluoro-8-(2-hydroxyacetyl)-6,6,9,13-tetramethyl-5,7-dioxapentacyclo[10.8.0.0²,⁹.0⁴,⁸.0¹³,¹⁸]icosa-14,17-dien-16-one

> <ALOGPS_LOGP>
4.22

> <JCHEM_LOGP>
3.4224905069999987

> <ALOGPS_LOGS>
-5.45

> <JCHEM_MDDR_LIKE_RULE>
0

> <JCHEM_NUMBER_OF_RINGS>
5

> <JCHEM_PHYSIOLOGICAL_CHARGE>
0

> <JCHEM_PKA>
14.790224849252478

> <JCHEM_PKA_STRONGEST_ACIDIC>
13.731827374057339

> <JCHEM_PKA_STRONGEST_BASIC>
-3.3320858711255354

> <JCHEM_POLAR_SURFACE_AREA>
72.83

> <JCHEM_REFRACTIVITY>
119.20729999999998

> <JCHEM_ROTATABLE_BOND_COUNT>
2

> <JCHEM_RULE_OF_FIVE>
1

> <ALOGPS_SOLUBILITY>
1.75e-03 g/l

> <JCHEM_TRADITIONAL_IUPAC>
flucloronide

> <JCHEM_VEBER_RULE>
0

> <DRUGBANK_ID>
DB08973

> <DRUG_GROUPS>
approved; withdrawn

> <GENERIC_NAME>
Fluclorolone acetonide

> <SYNONYMS>
Flucloronide

$$$$

  Mrv1909 01152023352D          

 23 25  0  0  0  0            999 V2000
    1.9032   -0.4099    0.0000 C   0  0  0  0  0  0  0  0  0  0  0  0
    1.4055    0.2635    0.0000 N   0  0  0  0  0  0  0  0  0  0  0  0
    1.4055   -1.0833    0.0000 N   0  0  0  0  0  0  0  0  0  0  0  0
    2.7231   -0.3806    0.0000 N   0  0  0  0  0  0  0  0  0  0  0  0
    0.6442    0.0293    0.0000 C   0  0  0  0  0  0  0  0  0  0  0  0
    3.1331    0.3220    0.0000 C   0  0  0  0  0  0  0  0  0  0  0  0
    0.6442   -0.8198    0.0000 C   0  0  0  0  0  0  0  0  0  0  0  0
   -0.7906    0.0293    0.0000 C   0  0  0  0  0  0  0  0  0  0  0  0
   -1.5225    0.4099    0.0000 C   0  0  0  0  0  0  0  0  0  0  0  0
   -0.0878    0.4099    0.0000 C   0  0  0  0  0  0  0  0  0  0  0  0
   -2.2254    0.0293    0.0000 C   0  0  0  0  0  0  0  0  0  0  0  0
    2.7231    1.0541    0.0000 O   0  0  0  0  0  0  0  0  0  0  0  0
   -0.7906   -0.8198    0.0000 C   0  0  0  0  0  0  0  0  0  0  0  0
   -1.5225    1.2590    0.0000 O   0  0  0  0  0  0  0  0  0  0  0  0
   -0.0878   -1.2297    0.0000 C   0  0  0  0  0  0  0  0  0  0  0  0
   -2.2254   -0.8198    0.0000 C   0  0  0  0  0  0  0  0  0  0  0  0
   -2.9574    0.4099    0.0000 C   0  0  0  0  0  0  0  0  0  0  0  0
    3.9822    0.3220    0.0000 O   0  0  0  0  0  0  0  0  0  0  0  0
   -3.6601   -0.8198    0.0000 C   0  0  0  0  0  0  0  0  0  0  0  0
   -3.6601    0.0293    0.0000 C   0  0  0  0  0  0  0  0  0  0  0  0
   -2.9574   -1.2297    0.0000 C   0  0  0  0  0  0  0  0  0  0  0  0
   -4.3922   -1.2590    0.0000 F   0  0  0  0  0  0  0  0  0  0  0  0
    4.3922    1.0541    0.0000 C   0  0  0  0  0  0  0  0  0  0  0  0
  2  1  2  0  0  0  0
  3  1  1  0  0  0  0
  4  1  1  0  0  0  0
  5  2  1  0  0  0  0
  7  3  1  0  0  0  0
  6  4  1  0  0  0  0
 10  5  1  0  0  0  0
  7  5  2  0  0  0  0
 12  6  2  0  0  0  0
 18  6  1  0  0  0  0
 15  7  1  0  0  0  0
 10  8  2  0  0  0  0
  9  8  1  0  0  0  0
 13  8  1  0  0  0  0
 11  9  1  0  0  0  0
 14  9  2  0  0  0  0
 16 11  2  0  0  0  0
 17 11  1  0  0  0  0
 15 13  2  0  0  0  0
 21 16  1  0  0  0  0
 20 17  2  0  0  0  0
 23 18  1  0  0  0  0
 20 19  1  0  0  0  0
 22 19  1  0  0  0  0
 21 19  2  0  0  0  0
M  END
> <DATABASE_ID>
DB08974

> <DATABASE_NAME>
drugbank

> <SMILES>
COC(=O)NC1=NC2=C(N1)C=CC(=C2)C(=O)C1=CC=C(F)C=C1

> <INCHI_IDENTIFIER>
InChI=1S/C16H12FN3O3/c1-23-16(22)20-15-18-12-7-4-10(8-13(12)19-15)14(21)9-2-5-11(17)6-3-9/h2-8H,1H3,(H2,18,19,20,22)

> <INCHI_KEY>
CPEUVMUXAHMANV-UHFFFAOYSA-N

> <FORMULA>
C16H12FN3O3

> <MOLECULAR_WEIGHT>
313.2832

> <EXACT_MASS>
313.08626947

> <JCHEM_ACCEPTOR_COUNT>
4

> <JCHEM_ATOM_COUNT>
35

> <JCHEM_AVERAGE_NEUTRAL_MICROSPECIES_CHARGE>
0.9996446378015903

> <JCHEM_AVERAGE_POLARIZABILITY>
31.162395750582846

> <JCHEM_BIOAVAILABILITY>
1

> <JCHEM_DONOR_COUNT>
2

> <JCHEM_FORMAL_CHARGE>
0

> <JCHEM_GHOSE_FILTER>
1

> <JCHEM_IUPAC>
methyl N-[5-(4-fluorobenzoyl)-1H-1,3-benzodiazol-2-yl]carbamate

> <ALOGPS_LOGP>
2.87

> <JCHEM_LOGP>
3.402810481

> <ALOGPS_LOGS>
-4.04

> <JCHEM_MDDR_LIKE_RULE>
0

> <JCHEM_NEUTRAL_CHARGE>
0

> <JCHEM_NUMBER_OF_RINGS>
3

> <JCHEM_PHYSIOLOGICAL_CHARGE>
0

> <JCHEM_PKA>
13.923358957880428

> <JCHEM_PKA_STRONGEST_ACIDIC>
9.169942665252304

> <JCHEM_PKA_STRONGEST_BASIC>
3.422017472992864

> <JCHEM_POLAR_SURFACE_AREA>
84.08

> <JCHEM_REFRACTIVITY>
81.72030000000001

> <JCHEM_ROTATABLE_BOND_COUNT>
4

> <JCHEM_RULE_OF_FIVE>
1

> <ALOGPS_SOLUBILITY>
2.88e-02 g/l

> <JCHEM_TRADITIONAL_IUPAC>
flubendazole

> <JCHEM_VEBER_RULE>
0

> <DRUGBANK_ID>
DB08974

> <DRUG_GROUPS>
experimental; withdrawn

> <GENERIC_NAME>
Flubendazole

> <SYNONYMS>
(5-(4-fluorobenzoyl)-1H-benzimidazole-2-yl)carbamic acid methyl ester; Flubendazol; Flubendazole; Flubendazolum; methyl 5-(p-fluorobenzoyl)-2-benzimidazolecarbamate

> <PRODUCTS>
Zelcom

> <INTERNATIONAL_BRANDS>
Flubenol; Flumoxal

$$$$

  Mrv1652306131722022D          

 23 26  0  0  0  0            999 V2000
   -1.2665    1.0256    0.0000 C   0  0  0  0  0  0  0  0  0  0  0  0
   -1.5214    0.2410    0.0000 C   0  0  0  0  0  0  0  0  0  0  0  0
   -0.9694   -0.3721    0.0000 C   0  0  0  0  0  0  0  0  0  0  0  0
   -1.0023   -1.3566    0.0000 C   0  0  0  0  0  0  0  0  0  0  0  0
   -0.3349   -1.8416    0.0000 C   0  0  0  0  0  0  0  0  0  0  0  0
    0.4188   -1.5060    0.0000 C   0  0  0  0  0  0  0  0  0  0  0  0
    0.5050   -0.6855    0.0000 C   0  0  0  0  0  0  0  0  0  0  0  0
   -0.1624   -0.2006    0.0000 C   0  0  0  0  0  0  0  0  0  0  0  0
    0.0925    0.5840    0.0000 C   0  0  0  0  0  0  0  0  0  0  0  0
   -0.4595    1.1971    0.0000 C   0  0  0  0  0  0  0  0  0  0  0  0
    0.9175    0.5840    0.0000 C   0  0  0  0  0  0  0  0  0  0  0  0
    1.1724   -0.2006    0.0000 C   0  0  0  0  0  0  0  0  0  0  0  0
    1.9794   -0.3721    0.0000 C   0  0  0  0  0  0  0  0  0  0  0  0
    2.5314    0.2410    0.0000 C   0  0  0  0  0  0  0  0  0  0  0  0
    2.2765    1.0256    0.0000 C   0  0  0  0  0  0  0  0  0  0  0  0
    1.4695    1.1971    0.0000 C   0  0  0  0  0  0  0  0  0  0  0  0
    3.3384    0.0694    0.0000 C   0  0  0  0  0  0  0  0  0  0  0  0
    3.8904    0.6825    0.0000 O   0  0  0  0  0  0  0  0  0  0  0  0
    3.5934   -0.7152    0.0000 C   0  0  0  0  0  0  0  0  0  0  0  0
    4.4003   -0.8867    0.0000 C   0  0  0  0  0  0  0  0  0  0  0  0
    4.6553   -1.6713    0.0000 C   0  0  0  0  0  0  0  0  0  0  0  0
    5.4622   -1.8429    0.0000 O   0  0  0  0  0  0  0  0  0  0  0  0
    4.1032   -2.2844    0.0000 O   0  0  0  0  0  0  0  0  0  0  0  0
  1  2  1  0  0  0  0
  2  3  2  0  0  0  0
  3  4  1  0  0  0  0
  4  5  2  0  0  0  0
  5  6  1  0  0  0  0
  6  7  2  0  0  0  0
  7  8  1  0  0  0  0
  3  8  1  0  0  0  0
  8  9  2  0  0  0  0
  9 10  1  0  0  0  0
  1 10  2  0  0  0  0
  9 11  1  0  0  0  0
 11 12  2  0  0  0  0
  7 12  1  0  0  0  0
 12 13  1  0  0  0  0
 13 14  2  0  0  0  0
 14 15  1  0  0  0  0
 15 16  2  0  0  0  0
 11 16  1  0  0  0  0
 14 17  1  0  0  0  0
 17 18  2  0  0  0  0
 17 19  1  0  0  0  0
 19 20  1  0  0  0  0
 20 21  1  0  0  0  0
 21 22  2  0  0  0  0
 21 23  1  0  0  0  0
M  END
> <DATABASE_ID>
DB08975

> <DATABASE_NAME>
drugbank

> <SMILES>
OC(=O)CCC(=O)C1=CC2=C(C=C1)C1=C3C2=CC=CC3=CC=C1

> <INCHI_IDENTIFIER>
InChI=1S/C20H14O3/c21-18(9-10-19(22)23)13-7-8-14-15-5-1-3-12-4-2-6-16(20(12)15)17(14)11-13/h1-8,11H,9-10H2,(H,22,23)

> <INCHI_KEY>
QOBAOSCOLAGPKI-UHFFFAOYSA-N

> <FORMULA>
C20H14O3

> <MOLECULAR_WEIGHT>
302.329

> <EXACT_MASS>
302.094294311

> <JCHEM_ACCEPTOR_COUNT>
3

> <JCHEM_ATOM_COUNT>
37

> <JCHEM_AVERAGE_POLARIZABILITY>
33.115857873118046

> <JCHEM_BIOAVAILABILITY>
1

> <JCHEM_DONOR_COUNT>
1

> <JCHEM_FORMAL_CHARGE>
0

> <JCHEM_GHOSE_FILTER>
1

> <JCHEM_IUPAC>
4-(fluoranthen-8-yl)-4-oxobutanoic acid

> <ALOGPS_LOGP>
3.99

> <JCHEM_LOGP>
3.666437746333333

> <ALOGPS_LOGS>
-5.62

> <JCHEM_MDDR_LIKE_RULE>
0

> <JCHEM_NUMBER_OF_RINGS>
4

> <JCHEM_PHYSIOLOGICAL_CHARGE>
-1

> <JCHEM_PKA>
16.82733752822315

> <JCHEM_PKA_STRONGEST_ACIDIC>
4.60868740085285

> <JCHEM_PKA_STRONGEST_BASIC>
-7.460194306056517

> <JCHEM_POLAR_SURFACE_AREA>
54.370000000000005

> <JCHEM_REFRACTIVITY>
88.01869999999998

> <JCHEM_ROTATABLE_BOND_COUNT>
4

> <JCHEM_RULE_OF_FIVE>
1

> <ALOGPS_SOLUBILITY>
7.29e-04 g/l

> <JCHEM_TRADITIONAL_IUPAC>
florantyrone

> <JCHEM_VEBER_RULE>
0

> <DRUGBANK_ID>
DB08975

> <DRUG_GROUPS>
withdrawn

> <GENERIC_NAME>
Florantyrone

$$$$

  Mrv1909 10181922522D          

 29 31  0  0  0  0            999 V2000
   -3.9295    1.8009    0.0000 O   0  0  0  0  0  0  0  0  0  0  0  0
   -3.2151    1.3884    0.0000 C   0  0  0  0  0  0  0  0  0  0  0  0
   -2.5006    1.8009    0.0000 C   0  0  0  0  0  0  0  0  0  0  0  0
   -2.5006    2.6259    0.0000 O   0  0  0  0  0  0  0  0  0  0  0  0
   -1.7861    1.3884    0.0000 C   0  0  0  0  0  0  0  0  0  0  0  0
   -1.0717    1.8009    0.0000 O   0  0  0  0  0  0  0  0  0  0  0  0
   -0.3572    1.3884    0.0000 C   0  0  0  0  0  0  0  0  0  0  0  0
   -0.3572    0.5634    0.0000 O   0  0  0  0  0  0  0  0  0  0  0  0
    0.3572    1.8009    0.0000 C   0  0  0  0  0  0  0  0  0  0  0  0
    0.3572    2.6259    0.0000 C   0  0  0  0  0  0  0  0  0  0  0  0
    1.0717    3.0384    0.0000 C   0  0  0  0  0  0  0  0  0  0  0  0
    1.7861    2.6259    0.0000 C   0  0  0  0  0  0  0  0  0  0  0  0
    1.7861    1.8009    0.0000 C   0  0  0  0  0  0  0  0  0  0  0  0
    1.0717    1.3884    0.0000 C   0  0  0  0  0  0  0  0  0  0  0  0
    1.0717    0.5634    0.0000 N   0  0  0  0  0  0  0  0  0  0  0  0
    1.7861    0.1509    0.0000 C   0  0  0  0  0  0  0  0  0  0  0  0
    2.5006    0.5634    0.0000 C   0  0  0  0  0  0  0  0  0  0  0  0
    3.2151    0.1509    0.0000 C   0  0  0  0  0  0  0  0  0  0  0  0
    3.2151   -0.6740    0.0000 N   0  0  0  0  0  0  0  0  0  0  0  0
    2.5006   -1.0865    0.0000 C   0  0  0  0  0  0  0  0  0  0  0  0
    2.5006   -1.9115    0.0000 C   0  0  0  0  0  0  0  0  0  0  0  0
    1.7861   -2.3240    0.0000 C   0  0  0  0  0  0  0  0  0  0  0  0
    1.0717   -1.9115    0.0000 C   0  0  0  0  0  0  0  0  0  0  0  0
    1.0717   -1.0865    0.0000 C   0  0  0  0  0  0  0  0  0  0  0  0
    1.7861   -0.6740    0.0000 C   0  0  0  0  0  0  0  0  0  0  0  0
    3.2151   -2.3240    0.0000 C   0  0  0  0  0  0  0  0  0  0  0  0
    3.9295   -2.7365    0.0000 F   0  0  0  0  0  0  0  0  0  0  0  0
    2.8026   -3.0384    0.0000 F   0  0  0  0  0  0  0  0  0  0  0  0
    3.6276   -1.6095    0.0000 F   0  0  0  0  0  0  0  0  0  0  0  0
  1  2  1  0  0  0  0
  2  3  1  0  0  0  0
  3  4  1  0  0  0  0
  3  5  1  0  0  0  0
  5  6  1  0  0  0  0
  6  7  1  0  0  0  0
  7  8  2  0  0  0  0
  7  9  1  0  0  0  0
  9 10  2  0  0  0  0
 10 11  1  0  0  0  0
 11 12  2  0  0  0  0
 12 13  1  0  0  0  0
 13 14  2  0  0  0  0
  9 14  1  0  0  0  0
 14 15  1  0  0  0  0
 15 16  1  0  0  0  0
 16 17  2  0  0  0  0
 17 18  1  0  0  0  0
 18 19  2  0  0  0  0
 19 20  1  0  0  0  0
 20 21  2  0  0  0  0
 21 22  1  0  0  0  0
 22 23  2  0  0  0  0
 23 24  1  0  0  0  0
 24 25  2  0  0  0  0
 16 25  1  0  0  0  0
 20 25  1  0  0  0  0
 21 26  1  0  0  0  0
 26 27  1  0  0  0  0
 26 28  1  0  0  0  0
 26 29  1  0  0  0  0
M  END
> <DATABASE_ID>
DB08976

> <DATABASE_NAME>
drugbank

> <SMILES>
OCC(O)COC(=O)C1=CC=CC=C1NC1=CC=NC2=C(C=CC=C12)C(F)(F)F

> <INCHI_IDENTIFIER>
InChI=1S/C20H17F3N2O4/c21-20(22,23)15-6-3-5-13-17(8-9-24-18(13)15)25-16-7-2-1-4-14(16)19(28)29-11-12(27)10-26/h1-9,12,26-27H,10-11H2,(H,24,25)

> <INCHI_KEY>
APQPGQGAWABJLN-UHFFFAOYSA-N

> <FORMULA>
C20H17F3N2O4

> <MOLECULAR_WEIGHT>
406.3552

> <EXACT_MASS>
406.114041657

> <JCHEM_ACCEPTOR_COUNT>
5

> <JCHEM_ATOM_COUNT>
46

> <JCHEM_AVERAGE_POLARIZABILITY>
37.758280305482124

> <JCHEM_BIOAVAILABILITY>
1

> <JCHEM_DONOR_COUNT>
3

> <JCHEM_FORMAL_CHARGE>
0

> <JCHEM_GHOSE_FILTER>
1

> <JCHEM_IUPAC>
2,3-dihydroxypropyl 2-{[8-(trifluoromethyl)quinolin-4-yl]amino}benzoate

> <ALOGPS_LOGP>
3.05

> <JCHEM_LOGP>
4.4317147383333335

> <ALOGPS_LOGS>
-4.07

> <JCHEM_MDDR_LIKE_RULE>
1

> <JCHEM_NUMBER_OF_RINGS>
3

> <JCHEM_PHYSIOLOGICAL_CHARGE>
0

> <JCHEM_PKA>
15.521476510352766

> <JCHEM_PKA_STRONGEST_ACIDIC>
13.61817495283358

> <JCHEM_PKA_STRONGEST_BASIC>
5.844358018359863

> <JCHEM_POLAR_SURFACE_AREA>
91.67999999999999

> <JCHEM_REFRACTIVITY>
98.71930000000002

> <JCHEM_ROTATABLE_BOND_COUNT>
8

> <JCHEM_RULE_OF_FIVE>
1

> <ALOGPS_SOLUBILITY>
3.46e-02 g/l

> <JCHEM_TRADITIONAL_IUPAC>
manidipine hydrochloride

> <JCHEM_VEBER_RULE>
0

> <DRUGBANK_ID>
DB08976

> <DRUG_GROUPS>
approved; withdrawn

> <GENERIC_NAME>
Floctafenine

> <SYNONYMS>
Floctafenina; Floctafenine; Floctafeninum

> <PRODUCTS>
Floctafenine; Idarac

> <INTERNATIONAL_BRANDS>
Diralgan; Idalon; Novodolan

$$$$

  Mrv1572003301602562D          

 40 44  0  0  0  0            999 V2000
    0.3896   -0.3913    0.0000 C   0  0  0  0  0  0  0  0  0  0  0  0
   -4.7529    2.8735    0.0000 C   0  0  0  0  0  0  0  0  0  0  0  0
    3.4817   -3.4342    0.0000 C   0  0  0  0  0  0  0  0  0  0  0  0
   -4.5699    2.0691    0.0000 C   0  0  0  0  0  0  0  0  0  0  0  0
   -4.1476    3.4342    0.0000 C   0  0  0  0  0  0  0  0  0  0  0  0
    4.1784   -2.9924    0.0000 C   0  0  0  0  0  0  0  0  0  0  0  0
    2.7507   -3.0518    0.0000 C   0  0  0  0  0  0  0  0  0  0  0  0
   -3.7818    1.8253    0.0000 C   0  0  0  0  0  0  0  0  0  0  0  0
   -3.3595    3.1904    0.0000 C   0  0  0  0  0  0  0  0  0  0  0  0
    4.1441   -2.1681    0.0000 C   0  0  0  0  0  0  0  0  0  0  0  0
    2.7164   -2.2275    0.0000 C   0  0  0  0  0  0  0  0  0  0  0  0
   -2.2054    1.3377    0.0000 C   0  0  0  0  0  0  0  0  0  0  0  0
   -1.7832    2.7028    0.0000 C   0  0  0  0  0  0  0  0  0  0  0  0
   -1.4173    1.0939    0.0000 C   0  0  0  0  0  0  0  0  0  0  0  0
   -0.9950    2.4591    0.0000 C   0  0  0  0  0  0  0  0  0  0  0  0
   -0.8408   -0.5437    0.0000 C   0  0  0  0  0  0  0  0  0  0  0  0
   -0.8408    0.2812    0.0000 C   0  0  0  0  0  0  0  0  0  0  0  0
    0.6084   -0.8745    0.0000 C   0  0  0  0  0  0  0  0  0  0  0  0
    0.6084    0.6120    0.0000 C   0  0  0  0  0  0  0  0  0  0  0  0
    0.1871    0.4825    0.0000 C   0  0  0  0  0  0  0  0  0  0  0  0
    3.9461   -0.3330    0.0000 C   0  0  0  0  0  0  0  0  0  0  0  0
   -3.1765    2.3860    0.0000 C   0  0  0  0  0  0  0  0  0  0  0  0
   -2.3884    2.1422    0.0000 C   0  0  0  0  0  0  0  0  0  0  0  0
    3.4131   -1.7856    0.0000 C   0  0  0  0  0  0  0  0  0  0  0  0
   -0.8121    1.6546    0.0000 C   0  0  0  0  0  0  0  0  0  0  0  0
   -0.1958   -1.0581    0.0000 C   0  0  2  0  0  0  0  0  0  0  0  0
   -0.1958    0.7955    0.0000 C   0  0  1  0  0  0  0  0  0  0  0  0
    0.9664   -0.1312    0.0000 C   0  0  1  0  0  0  0  0  0  0  0  0
    3.3788   -0.9614    0.0000 C   0  0  2  0  0  0  0  0  0  0  0  0
   -0.0239    1.4108    0.0000 C   0  0  0  0  0  0  0  0  0  0  0  0
    2.6085   -0.5583    0.0000 C   0  0  0  0  0  0  0  0  0  0  0  0
   -0.4275   -0.1312    0.0000 N   0  3  0  0  0  0  0  0  0  0  0  0
    4.7529   -0.5056    0.0000 O   0  0  0  0  0  0  0  0  0  0  0  0
    0.5812    1.9715    0.0000 O   0  0  0  0  0  0  0  0  0  0  0  0
    2.6054   -1.3833    0.0000 O   0  0  0  0  0  0  0  0  0  0  0  0
    1.8798   -0.1341    0.0000 O   0  0  0  0  0  0  0  0  0  0  0  0
   -0.3794   -1.8624    0.0000 H   0  0  0  0  0  0  0  0  0  0  0  0
   -0.8836    1.2511    0.0000 H   0  0  0  0  0  0  0  0  0  0  0  0
    1.4064    0.5665    0.0000 H   0  0  0  0  0  0  0  0  0  0  0  0
    4.1548   -1.2415    0.0000 H   0  0  0  0  0  0  0  0  0  0  0  0
  4  2  2  0  0  0  0
  5  2  1  0  0  0  0
  6  3  2  0  0  0  0
  7  3  1  0  0  0  0
  8  4  1  0  0  0  0
  9  5  2  0  0  0  0
 10  6  1  0  0  0  0
 11  7  2  0  0  0  0
 14 12  1  0  0  0  0
 15 13  2  0  0  0  0
 17 16  1  0  0  0  0
 22  8  2  0  0  0  0
 22  9  1  0  0  0  0
 23 12  2  0  0  0  0
 23 13  1  0  0  0  0
 23 22  1  0  0  0  0
 24 10  2  0  0  0  0
 24 11  1  0  0  0  0
 25 14  2  0  0  0  0
 25 15  1  0  0  0  0
 26 16  1  0  0  0  0
 26 18  1  0  0  0  0
 27 17  1  0  0  0  0
 27 19  1  0  0  0  0
 28 18  1  0  0  0  0
 28 19  1  0  0  0  0
 29 21  1  0  0  0  0
 29 24  1  0  0  0  0
 30 20  1  0  0  0  0
 30 25  1  0  0  0  0
 29 31  1  1  0  0  0
 32  1  1  0  0  0  0
 32 20  1  0  0  0  0
 32 26  1  0  0  0  0
 32 27  1  0  0  0  0
 33 21  1  0  0  0  0
 34 30  2  0  0  0  0
 35 31  2  0  0  0  0
 28 36  1  1  0  0  0
 36 31  1  0  0  0  0
 26 37  1  6  0  0  0
 27 38  1  6  0  0  0
 28 39  1  6  0  0  0
 29 40  1  1  0  0  0
M  CHG  1  32   1
M  END
> <DATABASE_ID>
DB08978

> <DATABASE_NAME>
drugbank

> <SMILES>
[H][C@](CO)(C(=O)O[C@]1([H])C[C@]2([H])CC[C@]([H])(C1)[N+]2(C)CC(=O)C1=CC=C(C=C1)C1=CC=CC=C1)C1=CC=CC=C1

> <INCHI_IDENTIFIER>
InChI=1S/C31H34NO4/c1-32(20-30(34)25-14-12-23(13-15-25)22-8-4-2-5-9-22)26-16-17-27(32)19-28(18-26)36-31(35)29(21-33)24-10-6-3-7-11-24/h2-15,26-29,33H,16-21H2,1H3/q+1/t26-,27+,28+,29-,32?/m1/s1

> <INCHI_KEY>
CSYZZFNWCDOVIM-OCTNZTSRSA-N

> <FORMULA>
C31H34NO4

> <MOLECULAR_WEIGHT>
484.615

> <EXACT_MASS>
484.248234999

> <JCHEM_ACCEPTOR_COUNT>
3

> <JCHEM_ATOM_COUNT>
70

> <JCHEM_AVERAGE_POLARIZABILITY>
54.505320508841386

> <JCHEM_BIOAVAILABILITY>
1

> <JCHEM_DONOR_COUNT>
1

> <JCHEM_FORMAL_CHARGE>
1

> <JCHEM_GHOSE_FILTER>
0

> <JCHEM_IUPAC>
(1R,3R,5S)-8-(2-{[1,1'-biphenyl]-4-yl}-2-oxoethyl)-3-{[(2S)-3-hydroxy-2-phenylpropanoyl]oxy}-8-methyl-8-azabicyclo[3.2.1]octan-8-ium

> <ALOGPS_LOGP>
2.83

> <JCHEM_LOGP>
0.28835211952825335

> <ALOGPS_LOGS>
-6.95

> <JCHEM_MDDR_LIKE_RULE>
1

> <JCHEM_NUMBER_OF_RINGS>
5

> <JCHEM_PHYSIOLOGICAL_CHARGE>
1

> <JCHEM_PKA_STRONGEST_ACIDIC>
15.14573979457521

> <JCHEM_PKA_STRONGEST_BASIC>
-2.7350534138528033

> <JCHEM_POLAR_SURFACE_AREA>
63.599999999999994

> <JCHEM_REFRACTIVITY>
151.7679

> <JCHEM_ROTATABLE_BOND_COUNT>
9

> <JCHEM_RULE_OF_FIVE>
1

> <ALOGPS_SOLUBILITY>
5.82e-05 g/l

> <JCHEM_TRADITIONAL_IUPAC>
(1R,3R,5S)-8-(2-{[1,1'-biphenyl]-4-yl}-2-oxoethyl)-3-{[(2S)-3-hydroxy-2-phenylpropanoyl]oxy}-8-methyl-8-azabicyclo[3.2.1]octan-8-ium

> <JCHEM_VEBER_RULE>
0

> <DRUGBANK_ID>
DB08978

> <DRUG_GROUPS>
withdrawn

> <GENERIC_NAME>
Fentonium

> <SALTS>
Fentonium bromide

$$$$

  Mrv0541 06101408412D          

 24 26  0  0  0  0            999 V2000
    3.5723   -0.4125    0.0000 C   0  0  0  0  0  0  0  0  0  0  0  0
    1.4289   -2.4750    0.0000 C   0  0  0  0  0  0  0  0  0  0  0  0
    8.5736   -2.4750    0.0000 C   0  0  0  0  0  0  0  0  0  0  0  0
    6.4302    1.2375    0.0000 C   0  0  0  0  0  0  0  0  0  0  0  0
    2.1434   -2.8875    0.0000 C   0  0  0  0  0  0  0  0  0  0  0  0
    1.4289   -1.6500    0.0000 C   0  0  0  0  0  0  0  0  0  0  0  0
    8.5736   -1.6500    0.0000 C   0  0  0  0  0  0  0  0  0  0  0  0
    7.8591   -2.8875    0.0000 C   0  0  0  0  0  0  0  0  0  0  0  0
    5.7157    0.8250    0.0000 C   0  0  0  0  0  0  0  0  0  0  0  0
    7.1447    0.8250    0.0000 C   0  0  0  0  0  0  0  0  0  0  0  0
    2.8578   -2.4750    0.0000 C   0  0  0  0  0  0  0  0  0  0  0  0
    2.1434   -1.2375    0.0000 C   0  0  0  0  0  0  0  0  0  0  0  0
    7.8591   -1.2375    0.0000 C   0  0  0  0  0  0  0  0  0  0  0  0
    7.1447   -2.4750    0.0000 C   0  0  0  0  0  0  0  0  0  0  0  0
    5.7157    0.0000    0.0000 C   0  0  0  0  0  0  0  0  0  0  0  0
    7.1447    0.0000    0.0000 C   0  0  0  0  0  0  0  0  0  0  0  0
    5.7157   -1.6500    0.0000 C   0  0  0  0  0  0  0  0  0  0  0  0
    5.0012   -1.2375    0.0000 C   0  0  0  0  0  0  0  0  0  0  0  0
    3.5723   -1.2375    0.0000 C   0  0  0  0  0  0  0  0  0  0  0  0
    2.8578   -1.6500    0.0000 C   0  0  0  0  0  0  0  0  0  0  0  0
    7.1447   -1.6500    0.0000 C   0  0  0  0  0  0  0  0  0  0  0  0
    6.4302   -0.4125    0.0000 C   0  0  0  0  0  0  0  0  0  0  0  0
    6.4302   -1.2375    0.0000 C   0  0  0  0  0  0  0  0  0  0  0  0
    4.2868   -1.6500    0.0000 N   0  0  0  0  0  0  0  0  0  0  0  0
  5  2  2  0  0  0  0
  6  2  1  0  0  0  0
  7  3  2  0  0  0  0
  8  3  1  0  0  0  0
  9  4  2  0  0  0  0
 10  4  1  0  0  0  0
 11  5  1  0  0  0  0
 12  6  2  0  0  0  0
 13  7  1  0  0  0  0
 14  8  2  0  0  0  0
 15  9  1  0  0  0  0
 16 10  2  0  0  0  0
 18 17  1  0  0  0  0
 19  1  1  0  0  0  0
 20 11  2  0  0  0  0
 20 12  1  0  0  0  0
 20 19  1  0  0  0  0
 21 13  2  0  0  0  0
 21 14  1  0  0  0  0
 22 15  2  0  0  0  0
 22 16  1  0  0  0  0
 23 17  1  0  0  0  0
 23 21  1  0  0  0  0
 23 22  1  0  0  0  0
 24 18  1  0  0  0  0
 24 19  1  0  0  0  0
M  END
> <DATABASE_ID>
DB08980

> <DATABASE_NAME>
drugbank

> <SMILES>
CC(NCCC(C1=CC=CC=C1)C1=CC=CC=C1)C1=CC=CC=C1

> <INCHI_IDENTIFIER>
InChI=1S/C23H25N/c1-19(20-11-5-2-6-12-20)24-18-17-23(21-13-7-3-8-14-21)22-15-9-4-10-16-22/h2-16,19,23-24H,17-18H2,1H3

> <INCHI_KEY>
NMKSAYKQLCHXDK-UHFFFAOYSA-N

> <FORMULA>
C23H25N

> <MOLECULAR_WEIGHT>
315.4513

> <EXACT_MASS>
315.198699805

> <JCHEM_ACCEPTOR_COUNT>
1

> <JCHEM_AVERAGE_POLARIZABILITY>
37.619725839338486

> <JCHEM_BIOAVAILABILITY>
1

> <JCHEM_DONOR_COUNT>
1

> <JCHEM_FORMAL_CHARGE>
0

> <JCHEM_GHOSE_FILTER>
0

> <JCHEM_IUPAC>
(3,3-diphenylpropyl)(1-phenylethyl)amine

> <ALOGPS_LOGP>
5.63

> <JCHEM_LOGP>
5.826695726666667

> <ALOGPS_LOGS>
-6.71

> <JCHEM_MDDR_LIKE_RULE>
1

> <JCHEM_NUMBER_OF_RINGS>
3

> <JCHEM_PHYSIOLOGICAL_CHARGE>
1

> <JCHEM_PKA_STRONGEST_BASIC>
10.069546266056747

> <JCHEM_POLAR_SURFACE_AREA>
12.03

> <JCHEM_REFRACTIVITY>
102.337

> <JCHEM_ROTATABLE_BOND_COUNT>
7

> <JCHEM_RULE_OF_FIVE>
0

> <ALOGPS_SOLUBILITY>
6.22e-05 g/l

> <JCHEM_TRADITIONAL_IUPAC>
sensit

> <JCHEM_VEBER_RULE>
1

> <DRUGBANK_ID>
DB08980

> <DRUG_GROUPS>
withdrawn

> <GENERIC_NAME>
Fendiline

$$$$

  Mrv1909 08132004012D          

 13 13  0  0  0  0            999 V2000
   -0.7143    0.0000    0.0000 C   0  0  0  0  0  0  0  0  0  0  0  0
   -1.4289    0.4123    0.0000 C   0  0  0  0  0  0  0  0  0  0  0  0
    0.0000    0.4125    0.0000 C   0  0  0  0  0  0  0  0  0  0  0  0
   -0.7143   -0.8249    0.0000 C   0  0  0  0  0  0  0  0  0  0  0  0
   -2.1433   -0.0001    0.0000 C   0  0  0  0  0  0  0  0  0  0  0  0
    0.7145    0.0000    0.0000 C   0  0  0  0  0  0  0  0  0  0  0  0
   -0.0001    1.2375    0.0000 O   0  0  0  0  0  0  0  0  0  0  0  0
   -1.4287   -1.2374    0.0000 C   0  0  0  0  0  0  0  0  0  0  0  0
   -2.1433   -0.8251    0.0000 C   0  0  0  0  0  0  0  0  0  0  0  0
   -2.8579    0.4121    0.0000 O   0  0  0  0  0  0  0  0  0  0  0  0
    1.4288    0.4126    0.0000 N   0  0  0  0  0  0  0  0  0  0  0  0
    2.1433    0.0001    0.0000 C   0  0  0  0  0  0  0  0  0  0  0  0
    2.8579    0.4127    0.0000 C   0  0  0  0  0  0  0  0  0  0  0  0
  1  2  1  0  0  0  0
  1  3  1  0  0  0  0
  1  4  2  0  0  0  0
  2  5  2  0  0  0  0
  3  6  1  0  0  0  0
  3  7  1  0  0  0  0
  4  8  1  0  0  0  0
  5  9  1  0  0  0  0
  5 10  1  0  0  0  0
  6 11  1  0  0  0  0
 11 12  1  0  0  0  0
 12 13  1  0  0  0  0
  8  9  2  0  0  0  0
M  END
> <DATABASE_ID>
DB08985

> <DATABASE_NAME>
drugbank

> <SMILES>
CCNCC(O)C1=CC=CC(O)=C1

> <INCHI_IDENTIFIER>
InChI=1S/C10H15NO2/c1-2-11-7-10(13)8-4-3-5-9(12)6-8/h3-6,10-13H,2,7H2,1H3

> <INCHI_KEY>
SQVIAVUSQAWMKL-UHFFFAOYSA-N

> <FORMULA>
C10H15NO2

> <MOLECULAR_WEIGHT>
181.2316

> <EXACT_MASS>
181.110278729

> <JCHEM_ACCEPTOR_COUNT>
3

> <JCHEM_ATOM_COUNT>
28

> <JCHEM_AVERAGE_NEUTRAL_MICROSPECIES_CHARGE>
0.994139204079534

> <JCHEM_AVERAGE_POLARIZABILITY>
20.330155327166683

> <JCHEM_BIOAVAILABILITY>
1

> <JCHEM_DONOR_COUNT>
3

> <JCHEM_FORMAL_CHARGE>
0

> <JCHEM_GHOSE_FILTER>
1

> <JCHEM_IUPAC>
3-[2-(ethylamino)-1-hydroxyethyl]phenol

> <ALOGPS_LOGP>
0.01

> <JCHEM_LOGP>
0.23289200996352086

> <ALOGPS_LOGS>
-1.12

> <JCHEM_MDDR_LIKE_RULE>
0

> <JCHEM_NEUTRAL_CHARGE>
1

> <JCHEM_NUMBER_OF_RINGS>
1

> <JCHEM_PHYSIOLOGICAL_CHARGE>
1

> <JCHEM_PKA>
14.239329783146266

> <JCHEM_PKA_STRONGEST_ACIDIC>
9.104647437506527

> <JCHEM_PKA_STRONGEST_BASIC>
9.732244838342494

> <JCHEM_POLAR_SURFACE_AREA>
52.49

> <JCHEM_REFRACTIVITY>
51.998

> <JCHEM_ROTATABLE_BOND_COUNT>
4

> <JCHEM_RULE_OF_FIVE>
1

> <ALOGPS_SOLUBILITY>
1.38e+01 g/l

> <JCHEM_TRADITIONAL_IUPAC>
unii-71TH42O2CQ

> <JCHEM_VEBER_RULE>
0

> <DRUGBANK_ID>
DB08985

> <DRUG_GROUPS>
approved; withdrawn

> <GENERIC_NAME>
Etilefrine

> <SYNONYMS>
Etilefrina; Etilefrine; Etilefrinum

> <INTERNATIONAL_BRANDS>
Apocretin; Circupon; Effontil; Effortil; Effortilvet; Eti-Puren; Kertasin; Phetanol; Phetasin; Tonus-Forte; Updormin

> <SALTS>
Etilefrine hydrochloride

$$$$

  Mrv1652306111721552D          

 21 23  0  0  0  0            999 V2000
    0.3555   -0.4242    0.0000 C   0  0  0  0  0  0  0  0  0  0  0  0
   -0.3525   -0.0200    0.0000 C   0  0  0  0  0  0  0  0  0  0  0  0
    0.3555    1.2098    0.0000 N   0  0  0  0  0  0  0  0  0  0  0  0
    1.0664    0.8112    0.0000 C   0  0  0  0  0  0  0  0  0  0  0  0
    1.0664   -0.0200    0.0000 O   0  0  0  0  0  0  0  0  0  0  0  0
   -0.3525    0.8112    0.0000 C   0  0  0  0  0  0  0  0  0  0  0  0
   -1.0722   -0.4242    0.0000 C   0  0  0  0  0  0  0  0  0  0  0  0
    0.0029   -1.0607    0.0000 C   0  0  0  0  0  0  0  0  0  0  0  0
   -1.0722    1.2098    0.0000 C   0  0  0  0  0  0  0  0  0  0  0  0
    1.7918    1.2241    0.0000 N   0  0  0  0  0  0  0  0  0  0  0  0
   -1.7803   -0.0200    0.0000 C   0  0  0  0  0  0  0  0  0  0  0  0
    1.0235   -0.9230    0.0000 C   0  0  0  0  0  0  0  0  0  0  0  0
   -1.7803    0.8112    0.0000 C   0  0  0  0  0  0  0  0  0  0  0  0
   -2.5027   -0.4358    0.0000 Cl  0  0  0  0  0  0  0  0  0  0  0  0
   -0.8227   -1.0607    0.0000 C   0  0  0  0  0  0  0  0  0  0  0  0
    0.4157   -1.7517    0.0000 C   0  0  0  0  0  0  0  0  0  0  0  0
    1.7918    2.0526    0.0000 C   0  0  0  0  0  0  0  0  0  0  0  0
    2.5027    2.4712    0.0000 C   0  0  0  0  0  0  0  0  0  0  0  0
    0.0029   -2.4712    0.0000 C   0  0  0  0  0  0  0  0  0  0  0  0
   -1.2270   -1.7775    0.0000 C   0  0  0  0  0  0  0  0  0  0  0  0
   -0.8227   -2.4712    0.0000 C   0  0  0  0  0  0  0  0  0  0  0  0
  2  1  1  0  0  0  0
  3  4  2  0  0  0  0
  4  5  1  0  0  0  0
  5  1  1  0  0  0  0
  6  2  1  0  0  0  0
  7  2  2  0  0  0  0
  8  1  1  0  0  0  0
  9  6  2  0  0  0  0
 10  4  1  0  0  0  0
 11  7  1  0  0  0  0
 12  1  1  0  0  0  0
 13 11  2  0  0  0  0
 14 11  1  0  0  0  0
 15  8  2  0  0  0  0
 16  8  1  0  0  0  0
 17 10  1  0  0  0  0
 18 17  1  0  0  0  0
 19 16  2  0  0  0  0
 20 15  1  0  0  0  0
 21 19  1  0  0  0  0
  6  3  1  0  0  0  0
 20 21  2  0  0  0  0
  9 13  1  0  0  0  0
M  END
> <DATABASE_ID>
DB08986

> <DATABASE_NAME>
drugbank

> <SMILES>
CCNC1=NC2=CC=C(Cl)C=C2C(C)(O1)C1=CC=CC=C1

> <INCHI_IDENTIFIER>
InChI=1S/C17H17ClN2O/c1-3-19-16-20-15-10-9-13(18)11-14(15)17(2,21-16)12-7-5-4-6-8-12/h4-11H,3H2,1-2H3,(H,19,20)

> <INCHI_KEY>
IBYCYJFUEJQSMK-UHFFFAOYSA-N

> <FORMULA>
C17H17ClN2O

> <MOLECULAR_WEIGHT>
300.79

> <EXACT_MASS>
300.1029409

> <JCHEM_ACCEPTOR_COUNT>
3

> <JCHEM_ATOM_COUNT>
38

> <JCHEM_AVERAGE_POLARIZABILITY>
32.25148854510429

> <JCHEM_BIOAVAILABILITY>
1

> <JCHEM_DONOR_COUNT>
1

> <JCHEM_FORMAL_CHARGE>
0

> <JCHEM_GHOSE_FILTER>
1

> <JCHEM_IUPAC>
6-chloro-N-ethyl-4-methyl-4-phenyl-4H-3,1-benzoxazin-2-amine

> <ALOGPS_LOGP>
4.52

> <JCHEM_LOGP>
4.590647957666667

> <ALOGPS_LOGS>
-5.14

> <JCHEM_MDDR_LIKE_RULE>
0

> <JCHEM_NUMBER_OF_RINGS>
3

> <JCHEM_PHYSIOLOGICAL_CHARGE>
0

> <JCHEM_PKA_STRONGEST_BASIC>
5.179179486548087

> <JCHEM_POLAR_SURFACE_AREA>
33.62

> <JCHEM_REFRACTIVITY>
87.2307

> <JCHEM_ROTATABLE_BOND_COUNT>
2

> <JCHEM_RULE_OF_FIVE>
1

> <ALOGPS_SOLUBILITY>
2.16e-03 g/l

> <JCHEM_TRADITIONAL_IUPAC>
etifoxine

> <JCHEM_VEBER_RULE>
1

> <DRUGBANK_ID>
DB08986

> <DRUG_GROUPS>
investigational; withdrawn

> <GENERIC_NAME>
Etifoxine

> <SYNONYMS>
Etifoxina; Etifoxine; Etifoxinum

> <INTERNATIONAL_BRANDS>
Exsist; Stresam

> <SALTS>
Etifoxine hydrochloride

$$$$

  Mrv0541 06101415062D          

 19 20  0  0  0  0            999 V2000
    3.6184   -1.0852    0.0000 C   0  0  0  0  0  0  0  0  0  0  0  0
    0.0058    2.0279    0.0000 C   0  0  0  0  0  0  0  0  0  0  0  0
    3.0053   -1.6372    0.0000 C   0  0  0  0  0  0  0  0  0  0  0  0
    1.2645   -2.7954    0.0000 C   0  0  0  0  0  0  0  0  0  0  0  0
    1.9790   -2.3829    0.0000 C   0  0  0  0  0  0  0  0  0  0  0  0
    0.5501   -2.3829    0.0000 C   0  0  0  0  0  0  0  0  0  0  0  0
   -0.2126   -0.1539    0.0000 C   0  0  0  0  0  0  0  0  0  0  0  0
    1.9790   -1.5579    0.0000 C   0  0  0  0  0  0  0  0  0  0  0  0
    0.5501   -1.5579    0.0000 C   0  0  0  0  0  0  0  0  0  0  0  0
    0.4858   -0.5929    0.0000 C   0  0  0  0  0  0  0  0  0  0  0  0
    1.5370    0.4582    0.0000 C   0  0  0  0  0  0  0  0  0  0  0  0
   -0.3050    0.6658    0.0000 C   0  0  0  0  0  0  0  0  0  0  0  0
    1.0981    1.1568    0.0000 C   0  0  0  0  0  0  0  0  0  0  0  0
    1.2645   -1.1454    0.0000 C   0  0  0  0  0  0  0  0  0  0  0  0
    2.0492   -0.5753    0.0000 C   0  0  0  0  0  0  0  0  0  0  0  0
    1.2645   -0.3204    0.0000 C   0  0  0  0  0  0  0  0  0  0  0  0
    0.2783    1.2491    0.0000 N   0  0  0  0  0  0  0  0  0  0  0  0
    2.6623   -0.0233    0.0000 O   0  0  0  0  0  0  0  0  0  0  0  0
    2.2207   -1.3823    0.0000 O   0  0  0  0  0  0  0  0  0  0  0  0
  3  1  1  0  0  0  0
  5  4  2  0  0  0  0
  6  4  1  0  0  0  0
  8  5  1  0  0  0  0
  9  6  2  0  0  0  0
 10  7  1  0  0  0  0
 12  7  1  0  0  0  0
 13 11  1  0  0  0  0
 14  8  2  0  0  0  0
 14  9  1  0  0  0  0
 16 10  1  0  0  0  0
 16 11  1  0  0  0  0
 16 14  1  0  0  0  0
 16 15  1  0  0  0  0
 17  2  1  0  0  0  0
 17 12  1  0  0  0  0
 17 13  1  0  0  0  0
 18 15  2  0  0  0  0
 19  3  1  0  0  0  0
 19 15  1  0  0  0  0
M  END
> <DATABASE_ID>
DB08988

> <DATABASE_NAME>
drugbank

> <SMILES>
CCOC(=O)C1(CCCN(C)CC1)C1=CC=CC=C1

> <INCHI_IDENTIFIER>
InChI=1S/C16H23NO2/c1-3-19-15(18)16(14-8-5-4-6-9-14)10-7-12-17(2)13-11-16/h4-6,8-9H,3,7,10-13H2,1-2H3

> <INCHI_KEY>
WGJHHMKQBWSQIY-UHFFFAOYSA-N

> <FORMULA>
C16H23NO2

> <MOLECULAR_WEIGHT>
261.3593

> <EXACT_MASS>
261.172878985

> <JCHEM_ACCEPTOR_COUNT>
2

> <JCHEM_AVERAGE_POLARIZABILITY>
29.919523819168763

> <JCHEM_BIOAVAILABILITY>
1

> <JCHEM_DONOR_COUNT>
0

> <JCHEM_FORMAL_CHARGE>
0

> <JCHEM_GHOSE_FILTER>
1

> <JCHEM_IUPAC>
ethyl 1-methyl-4-phenylazepane-4-carboxylate

> <ALOGPS_LOGP>
3.32

> <JCHEM_LOGP>
2.900369060999999

> <ALOGPS_LOGS>
-2.66

> <JCHEM_MDDR_LIKE_RULE>
0

> <JCHEM_NUMBER_OF_RINGS>
2

> <JCHEM_PHYSIOLOGICAL_CHARGE>
1

> <JCHEM_PKA_STRONGEST_BASIC>
8.688102645501859

> <JCHEM_POLAR_SURFACE_AREA>
29.540000000000003

> <JCHEM_REFRACTIVITY>
77.08470000000001

> <JCHEM_ROTATABLE_BOND_COUNT>
4

> <JCHEM_RULE_OF_FIVE>
1

> <ALOGPS_SOLUBILITY>
5.75e-01 g/l

> <JCHEM_TRADITIONAL_IUPAC>
ethoheptazine

> <JCHEM_VEBER_RULE>
1

> <DRUGBANK_ID>
DB08988

> <DRUG_GROUPS>
approved; withdrawn

> <GENERIC_NAME>
Ethoheptazine

> <SYNONYMS>
Ethoheptazin; Ethoheptazine; Ethoheptazinum; Etoheptazina

> <PRODUCTS>
Equagesic Tablets

> <SALTS>
Ethoheptazine citrate; Ethoheptazine hydrochloride

$$$$

  Mrv0541 05031420592D          

 16 16  0  0  0  0            999 V2000
    2.1434   -0.4125    0.0000 C   0  0  0  0  0  0  0  0  0  0  0  0
    0.7145   -2.8875    0.0000 C   0  0  0  0  0  0  0  0  0  0  0  0
   -1.4289    0.8250    0.0000 C   0  0  0  0  0  0  0  0  0  0  0  0
    2.1434   -1.2375    0.0000 C   0  0  0  0  0  0  0  0  0  0  0  0
    1.4289   -2.4750    0.0000 C   0  0  0  0  0  0  0  0  0  0  0  0
    1.4289   -0.0000    0.0000 C   0  0  0  0  0  0  0  0  0  0  0  0
    1.4289    0.8250    0.0000 C   0  0  0  0  0  0  0  0  0  0  0  0
    0.0000   -0.0000    0.0000 C   0  0  0  0  0  0  0  0  0  0  0  0
    0.7145   -0.4125    0.0000 C   0  0  0  0  0  0  0  0  0  0  0  0
    0.7145    1.2375    0.0000 C   0  0  0  0  0  0  0  0  0  0  0  0
    0.0000    0.8250    0.0000 C   0  0  0  0  0  0  0  0  0  0  0  0
    0.7145   -1.2375    0.0000 C   0  0  0  0  0  0  0  0  0  0  0  0
    1.4289   -1.6500    0.0000 N   0  0  0  0  0  0  0  0  0  0  0  0
    0.7145    2.0625    0.0000 O   0  0  0  0  0  0  0  0  0  0  0  0
   -0.0000   -1.6500    0.0000 O   0  0  0  0  0  0  0  0  0  0  0  0
   -0.7145    1.2375    0.0000 O   0  0  0  0  0  0  0  0  0  0  0  0
  4  1  1  0  0  0  0
  5  2  1  0  0  0  0
  7  6  2  0  0  0  0
  9  6  1  0  0  0  0
  9  8  2  0  0  0  0
 10  7  1  0  0  0  0
 11  8  1  0  0  0  0
 11 10  2  0  0  0  0
 12  9  1  0  0  0  0
 13  4  1  0  0  0  0
 13  5  1  0  0  0  0
 13 12  1  0  0  0  0
 14 10  1  0  0  0  0
 15 12  2  0  0  0  0
 16  3  1  0  0  0  0
 16 11  1  0  0  0  0
M  END
> <DATABASE_ID>
DB08989

> <DATABASE_NAME>
drugbank

> <SMILES>
CCN(CC)C(=O)C1=CC(OC)=C(O)C=C1

> <INCHI_IDENTIFIER>
InChI=1S/C12H17NO3/c1-4-13(5-2)12(15)9-6-7-10(14)11(8-9)16-3/h6-8,14H,4-5H2,1-3H3

> <INCHI_KEY>
BQJODPIMMWWMFC-UHFFFAOYSA-N

> <FORMULA>
C12H17NO3

> <MOLECULAR_WEIGHT>
223.2683

> <EXACT_MASS>
223.120843415

> <JCHEM_ACCEPTOR_COUNT>
3

> <JCHEM_AVERAGE_POLARIZABILITY>
24.064723881066943

> <JCHEM_BIOAVAILABILITY>
1

> <JCHEM_DONOR_COUNT>
1

> <JCHEM_FORMAL_CHARGE>
0

> <JCHEM_GHOSE_FILTER>
1

> <JCHEM_IUPAC>
N,N-diethyl-4-hydroxy-3-methoxybenzamide

> <ALOGPS_LOGP>
1.81

> <JCHEM_LOGP>
1.5236175636666671

> <ALOGPS_LOGS>
-1.26

> <JCHEM_MDDR_LIKE_RULE>
0

> <JCHEM_NUMBER_OF_RINGS>
1

> <JCHEM_PHYSIOLOGICAL_CHARGE>
0

> <JCHEM_PKA_STRONGEST_ACIDIC>
8.946831677381185

> <JCHEM_PKA_STRONGEST_BASIC>
-0.3494245477282981

> <JCHEM_POLAR_SURFACE_AREA>
49.769999999999996

> <JCHEM_REFRACTIVITY>
62.871100000000006

> <JCHEM_ROTATABLE_BOND_COUNT>
4

> <JCHEM_RULE_OF_FIVE>
1

> <ALOGPS_SOLUBILITY>
1.24e+01 g/l

> <JCHEM_TRADITIONAL_IUPAC>
simaron

> <JCHEM_VEBER_RULE>
0

> <DRUGBANK_ID>
DB08989

> <DRUG_GROUPS>
withdrawn

> <GENERIC_NAME>
Etamivan

> <SYNONYMS>
étamivan; Etamivan; etamiván; Etamivanum; Ethamivan

> <INTERNATIONAL_BRANDS>
Analepticon; Vandid

$$$$

  Mrv1652306031607122D          

 28 30  0  0  0  0            999 V2000
    2.1434   -0.4125    0.0000 C   0  0  0  0  0  0  0  0  0  0  0  0
    2.8579   -2.4750    0.0000 C   0  0  0  0  0  0  0  0  0  0  0  0
    2.8579    0.0000    0.0000 C   0  0  0  0  0  0  0  0  0  0  0  0
    3.5724    3.7125    0.0000 C   0  0  0  0  0  0  0  0  0  0  0  0
    1.4289   -4.9500    0.0000 C   0  0  0  0  0  0  0  0  0  0  0  0
    2.8579    3.3000    0.0000 C   0  0  0  0  0  0  0  0  0  0  0  0
    4.2868    3.3000    0.0000 C   0  0  0  0  0  0  0  0  0  0  0  0
    2.1434   -5.3625    0.0000 C   0  0  0  0  0  0  0  0  0  0  0  0
    1.4289   -4.1250    0.0000 C   0  0  0  0  0  0  0  0  0  0  0  0
    2.8579    2.4750    0.0000 C   0  0  0  0  0  0  0  0  0  0  0  0
    4.2868    2.4750    0.0000 C   0  0  0  0  0  0  0  0  0  0  0  0
    2.8579   -4.9500    0.0000 C   0  0  0  0  0  0  0  0  0  0  0  0
    2.1434   -3.7125    0.0000 C   0  0  0  0  0  0  0  0  0  0  0  0
    5.0013   -1.2375    0.0000 C   0  0  0  0  0  0  0  0  0  0  0  0
    3.5724   -1.2375    0.0000 C   0  0  0  0  0  0  0  0  0  0  0  0
    5.0013   -0.4125    0.0000 C   0  0  0  0  0  0  0  0  0  0  0  0
    3.5724   -0.4125    0.0000 C   0  0  0  0  0  0  0  0  0  0  0  0
    4.2868   -2.4750    0.0000 C   0  0  0  0  0  0  0  0  0  0  0  0
    4.2868    0.8250    0.0000 C   0  0  0  0  0  0  0  0  0  0  0  0
    3.5724   -2.8875    0.0000 C   0  0  0  0  0  0  0  0  0  0  0  0
    3.5724    2.0625    0.0000 C   0  0  0  0  0  0  0  0  0  0  0  0
    2.8579   -4.1250    0.0000 C   0  0  0  0  0  0  0  0  0  0  0  0
    3.5724    1.2375    0.0000 C   0  0  0  0  0  0  0  0  0  0  0  0
    3.5724   -3.7125    0.0000 C   0  0  0  0  0  0  0  0  0  0  0  0
    4.2868   -1.6500    0.0000 N   0  0  0  0  0  0  0  0  0  0  0  0
    4.2868    0.0000    0.0000 N   0  0  0  0  0  0  0  0  0  0  0  0
    4.2868   -4.1250    0.0000 O   0  0  0  0  0  0  0  0  0  0  0  0
    2.8579    0.8250    0.0000 O   0  0  0  0  0  0  0  0  0  0  0  0
  3  1  1  0  0  0  0
  6  4  2  0  0  0  0
  7  4  1  0  0  0  0
  8  5  2  0  0  0  0
  9  5  1  0  0  0  0
 10  6  1  0  0  0  0
 11  7  2  0  0  0  0
 12  8  1  0  0  0  0
 13  9  2  0  0  0  0
 16 14  1  0  0  0  0
 17 15  1  0  0  0  0
 20  2  1  0  0  0  0
 20 18  1  0  0  0  0
 21 10  2  0  0  0  0
 21 11  1  0  0  0  0
 22 12  2  0  0  0  0
 22 13  1  0  0  0  0
 23 19  1  0  0  0  0
 23 21  1  0  0  0  0
 24 20  1  0  0  0  0
 24 22  1  0  0  0  0
 25 14  1  0  0  0  0
 25 15  1  0  0  0  0
 25 18  1  0  0  0  0
 26 16  1  0  0  0  0
 26 17  1  0  0  0  0
 26 19  1  0  0  0  0
 27 24  2  0  0  0  0
 28  3  1  0  0  0  0
 28 23  1  0  0  0  0
M  END
> <DATABASE_ID>
DB08990

> <DATABASE_NAME>
drugbank

> <SMILES>
CCOC(CN1CCN(CC(C)C(=O)C2=CC=CC=C2)CC1)C1=CC=CC=C1

> <INCHI_IDENTIFIER>
InChI=1S/C24H32N2O2/c1-3-28-23(21-10-6-4-7-11-21)19-26-16-14-25(15-17-26)18-20(2)24(27)22-12-8-5-9-13-22/h4-13,20,23H,3,14-19H2,1-2H3

> <INCHI_KEY>
BSHWLCACYCVCJE-UHFFFAOYSA-N

> <FORMULA>
C24H32N2O2

> <MOLECULAR_WEIGHT>
380.532

> <EXACT_MASS>
380.246378278

> <JCHEM_ACCEPTOR_COUNT>
4

> <JCHEM_ATOM_COUNT>
60

> <JCHEM_AVERAGE_POLARIZABILITY>
44.38030944645915

> <JCHEM_BIOAVAILABILITY>
1

> <JCHEM_DONOR_COUNT>
0

> <JCHEM_FORMAL_CHARGE>
0

> <JCHEM_GHOSE_FILTER>
1

> <JCHEM_IUPAC>
3-[4-(2-ethoxy-2-phenylethyl)piperazin-1-yl]-2-methyl-1-phenylpropan-1-one

> <ALOGPS_LOGP>
3.78

> <JCHEM_LOGP>
4.1435830503333335

> <ALOGPS_LOGS>
-3.90

> <JCHEM_MDDR_LIKE_RULE>
1

> <JCHEM_NUMBER_OF_RINGS>
3

> <JCHEM_PHYSIOLOGICAL_CHARGE>
1

> <JCHEM_PKA_STRONGEST_ACIDIC>
16.21440432186071

> <JCHEM_PKA_STRONGEST_BASIC>
7.320028352381414

> <JCHEM_POLAR_SURFACE_AREA>
32.78

> <JCHEM_REFRACTIVITY>
115.28869999999996

> <JCHEM_ROTATABLE_BOND_COUNT>
9

> <JCHEM_RULE_OF_FIVE>
1

> <ALOGPS_SOLUBILITY>
4.84e-02 g/l

> <JCHEM_TRADITIONAL_IUPAC>
eprazinone

> <JCHEM_VEBER_RULE>
1

> <DRUGBANK_ID>
DB08990

> <DRUG_GROUPS>
experimental; withdrawn

> <GENERIC_NAME>
Eprazinone

> <SYNONYMS>
eprazinona; Eprazinone; Éprazinone

> <SALTS>
Eprazinone Hydrochloride

$$$$

  Mrv0541 06161411332D          

 24 26  0  0  0  0            999 V2000
    4.4222   -3.3243    0.0000 C   0  0  0  0  0  0  0  0  0  0  0  0
    8.1567   -3.3243    0.0000 C   0  0  0  0  0  0  0  0  0  0  0  0
    5.2426   -3.4105    0.0000 C   0  0  0  0  0  0  0  0  0  0  0  0
    4.0866   -2.5706    0.0000 C   0  0  0  0  0  0  0  0  0  0  0  0
    8.4923   -2.5706    0.0000 C   0  0  0  0  0  0  0  0  0  0  0  0
    7.3362   -3.4105    0.0000 C   0  0  0  0  0  0  0  0  0  0  0  0
    5.7276   -2.7431    0.0000 C   0  0  0  0  0  0  0  0  0  0  0  0
    4.5715   -1.9032    0.0000 C   0  0  0  0  0  0  0  0  0  0  0  0
    8.0073   -1.9032    0.0000 C   0  0  0  0  0  0  0  0  0  0  0  0
    6.8513   -2.7431    0.0000 C   0  0  0  0  0  0  0  0  0  0  0  0
    5.5750    1.1850    0.0000 C   0  0  0  0  0  0  0  0  0  0  0  0
    7.0039    1.1850    0.0000 C   0  0  0  0  0  0  0  0  0  0  0  0
    5.5750    2.0100    0.0000 C   0  0  0  0  0  0  0  0  0  0  0  0
    7.0039    2.0100    0.0000 C   0  0  0  0  0  0  0  0  0  0  0  0
    5.3920   -1.9894    0.0000 C   0  0  0  0  0  0  0  0  0  0  0  0
    7.1868   -1.9894    0.0000 C   0  0  0  0  0  0  0  0  0  0  0  0
    5.8769   -1.3220    0.0000 C   0  0  0  0  0  0  0  0  0  0  0  0
    6.7019   -1.3220    0.0000 C   0  0  0  0  0  0  0  0  0  0  0  0
    6.2894   -0.0524    0.0000 C   0  0  0  0  0  0  0  0  0  0  0  0
    5.6220   -0.5374    0.0000 N   0  0  0  0  0  0  0  0  0  0  0  0
    6.2894    0.7725    0.0000 N   0  0  0  0  0  0  0  0  0  0  0  0
    4.8605    2.4225    0.0000 O   0  0  0  0  0  0  0  0  0  0  0  0
    7.7184    2.4225    0.0000 O   0  0  0  0  0  0  0  0  0  0  0  0
    6.9569   -0.5374    0.0000 O   0  0  0  0  0  0  0  0  0  0  0  0
  3  1  2  0  0  0  0
  4  1  1  0  0  0  0
  5  2  2  0  0  0  0
  6  2  1  0  0  0  0
  7  3  1  0  0  0  0
  8  4  2  0  0  0  0
  9  5  1  0  0  0  0
 10  6  2  0  0  0  0
 13 11  1  0  0  0  0
 14 12  1  0  0  0  0
 15  7  2  0  0  0  0
 15  8  1  0  0  0  0
 16  9  2  0  0  0  0
 16 10  1  0  0  0  0
 17 15  1  0  0  0  0
 18 16  1  0  0  0  0
 18 17  2  0  0  0  0
 20 17  1  0  0  0  0
 20 19  2  0  0  0  0
 21 11  1  0  0  0  0
 21 12  1  0  0  0  0
 21 19  1  0  0  0  0
 22 13  1  0  0  0  0
 23 14  1  0  0  0  0
 24 18  1  0  0  0  0
 24 19  1  0  0  0  0
M  END
> <DATABASE_ID>
DB08994

> <DATABASE_NAME>
drugbank

> <SMILES>
OCCN(CCO)C1=NC(=C(O1)C1=CC=CC=C1)C1=CC=CC=C1

> <INCHI_IDENTIFIER>
InChI=1S/C19H20N2O3/c22-13-11-21(12-14-23)19-20-17(15-7-3-1-4-8-15)18(24-19)16-9-5-2-6-10-16/h1-10,22-23H,11-14H2

> <INCHI_KEY>
UUCMDZWCRNZCOY-UHFFFAOYSA-N

> <FORMULA>
C19H20N2O3

> <MOLECULAR_WEIGHT>
324.3737

> <EXACT_MASS>
324.147392516

> <JCHEM_ACCEPTOR_COUNT>
4

> <JCHEM_AVERAGE_POLARIZABILITY>
35.889844059152026

> <JCHEM_BIOAVAILABILITY>
1

> <JCHEM_DONOR_COUNT>
2

> <JCHEM_FORMAL_CHARGE>
0

> <JCHEM_GHOSE_FILTER>
1

> <JCHEM_IUPAC>
2-[(diphenyl-1,3-oxazol-2-yl)(2-hydroxyethyl)amino]ethan-1-ol

> <ALOGPS_LOGP>
2.86

> <JCHEM_LOGP>
2.9275292136666664

> <ALOGPS_LOGS>
-3.35

> <JCHEM_MDDR_LIKE_RULE>
1

> <JCHEM_NUMBER_OF_RINGS>
3

> <JCHEM_PHYSIOLOGICAL_CHARGE>
0

> <JCHEM_PKA>
15.874069670203294

> <JCHEM_PKA_STRONGEST_ACIDIC>
15.27179708338533

> <JCHEM_PKA_STRONGEST_BASIC>
-0.1245390430354375

> <JCHEM_POLAR_SURFACE_AREA>
69.73

> <JCHEM_REFRACTIVITY>
93.0318

> <JCHEM_ROTATABLE_BOND_COUNT>
7

> <JCHEM_RULE_OF_FIVE>
1

> <ALOGPS_SOLUBILITY>
1.46e-01 g/l

> <JCHEM_TRADITIONAL_IUPAC>
ditazole

> <JCHEM_VEBER_RULE>
0

> <DRUGBANK_ID>
DB08994

> <DRUG_GROUPS>
experimental; withdrawn

> <GENERIC_NAME>
Ditazole

> <SYNONYMS>
2,2'-(4,5-Diphenyloxazol-2-ylazanediyl)diethanol

> <INTERNATIONAL_BRANDS>
Ageroplas

$$$$

  Mrv0541 06161412062D          

 22 24  0  0  0  0            999 V2000
    6.7124    0.3627    0.0000 C   0  0  0  0  0  0  0  0  0  0  0  0
    7.2427   -0.5557    0.0000 C   0  0  0  0  0  0  0  0  0  0  0  0
    1.4289   -1.6500    0.0000 C   0  0  0  0  0  0  0  0  0  0  0  0
    2.1434   -0.4125    0.0000 C   0  0  0  0  0  0  0  0  0  0  0  0
    5.0012    1.2375    0.0000 C   0  0  0  0  0  0  0  0  0  0  0  0
    7.1447   -2.4750    0.0000 C   0  0  0  0  0  0  0  0  0  0  0  0
    4.2868    0.8250    0.0000 C   0  0  0  0  0  0  0  0  0  0  0  0
    6.4302   -2.8875    0.0000 C   0  0  0  0  0  0  0  0  0  0  0  0
    3.5723   -1.2375    0.0000 C   0  0  0  0  0  0  0  0  0  0  0  0
    5.7157    0.8250    0.0000 C   0  0  0  0  0  0  0  0  0  0  0  0
    7.1447   -1.6500    0.0000 C   0  0  0  0  0  0  0  0  0  0  0  0
    4.2868    0.0000    0.0000 C   0  0  0  0  0  0  0  0  0  0  0  0
    5.7157   -2.4750    0.0000 C   0  0  0  0  0  0  0  0  0  0  0  0
    2.8578   -1.6500    0.0000 C   0  0  0  0  0  0  0  0  0  0  0  0
    4.2868   -1.6500    0.0000 C   0  0  0  0  0  0  0  0  0  0  0  0
    5.7157    0.0000    0.0000 C   0  0  0  0  0  0  0  0  0  0  0  0
    6.4302   -1.2375    0.0000 C   0  0  0  0  0  0  0  0  0  0  0  0
    5.0012   -0.4125    0.0000 C   0  0  0  0  0  0  0  0  0  0  0  0
    5.7157   -1.6500    0.0000 C   0  0  0  0  0  0  0  0  0  0  0  0
    6.4302   -0.4125    0.0000 C   0  0  0  0  0  0  0  0  0  0  0  0
    2.1434   -1.2375    0.0000 N   0  0  0  0  0  0  0  0  0  0  0  0
    5.0012   -1.2375    0.0000 N   0  0  0  0  0  0  0  0  0  0  0  0
  7  5  2  0  0  0  0
  8  6  2  0  0  0  0
 10  5  1  0  0  0  0
 11  6  1  0  0  0  0
 12  7  1  0  0  0  0
 13  8  1  0  0  0  0
 14  9  1  0  0  0  0
 15  9  1  0  0  0  0
 16 10  2  0  0  0  0
 17 11  2  0  0  0  0
 18 12  2  0  0  0  0
 18 16  1  0  0  0  0
 19 13  2  0  0  0  0
 19 17  1  0  0  0  0
 20  1  1  0  0  0  0
 20  2  1  0  0  0  0
 20 16  1  0  0  0  0
 20 17  1  0  0  0  0
 21  3  1  0  0  0  0
 21  4  1  0  0  0  0
 21 14  1  0  0  0  0
 22 15  1  0  0  0  0
 22 18  1  0  0  0  0
 22 19  1  0  0  0  0
M  END
> <DATABASE_ID>
DB08996

> <DATABASE_NAME>
drugbank

> <SMILES>
CN(C)CCCN1C2=CC=CC=C2C(C)(C)C2=CC=CC=C12

> <INCHI_IDENTIFIER>
InChI=1S/C20H26N2/c1-20(2)16-10-5-7-12-18(16)22(15-9-14-21(3)4)19-13-8-6-11-17(19)20/h5-8,10-13H,9,14-15H2,1-4H3

> <INCHI_KEY>
RYQOGSFEJBUZBX-UHFFFAOYSA-N

> <FORMULA>
C20H26N2

> <MOLECULAR_WEIGHT>
294.4338

> <EXACT_MASS>
294.209598842

> <JCHEM_ACCEPTOR_COUNT>
2

> <JCHEM_AVERAGE_POLARIZABILITY>
35.86948942071865

> <JCHEM_BIOAVAILABILITY>
1

> <JCHEM_DONOR_COUNT>
0

> <JCHEM_FORMAL_CHARGE>
0

> <JCHEM_GHOSE_FILTER>
1

> <JCHEM_IUPAC>
[3-(9,9-dimethyl-9,10-dihydroacridin-10-yl)propyl]dimethylamine

> <ALOGPS_LOGP>
4.96

> <JCHEM_LOGP>
4.421066345666667

> <ALOGPS_LOGS>
-3.93

> <JCHEM_MDDR_LIKE_RULE>
0

> <JCHEM_NUMBER_OF_RINGS>
3

> <JCHEM_PHYSIOLOGICAL_CHARGE>
1

> <JCHEM_PKA_STRONGEST_BASIC>
9.196977069511535

> <JCHEM_POLAR_SURFACE_AREA>
6.48

> <JCHEM_REFRACTIVITY>
105.52269999999997

> <JCHEM_ROTATABLE_BOND_COUNT>
4

> <JCHEM_RULE_OF_FIVE>
1

> <ALOGPS_SOLUBILITY>
3.43e-02 g/l

> <JCHEM_TRADITIONAL_IUPAC>
dimetacrine

> <JCHEM_VEBER_RULE>
1

> <DRUGBANK_ID>
DB08996

> <DRUG_GROUPS>
experimental; withdrawn

> <GENERIC_NAME>
Dimetacrine

> <SYNONYMS>
3-(9,9-dimethylacridin-10-yl)-N,N-dimethyl-propan-1-amine; Dimetacrine; Istonil; Istonyl; Linostil; Miroistonil

> <SALTS>
Dimetacrine bitartrate; Dimetacrine tartrate

$$$$

  Mrv1909 01172002212D          

 27 30  0  0  0  0            999 V2000
    0.7231   -1.0619    0.0000 C   0  0  1  0  0  0  0  0  0  0  0  0
    0.0105   -0.6462    0.0000 C   0  0  0  0  0  0  0  0  0  0  0  0
   -0.3109   -1.8514    0.0000 C   0  0  0  0  0  0  0  0  0  0  0  0
    1.4357   -0.6462    0.0000 C   0  0  0  0  0  0  0  0  0  0  0  0
    0.7196   -1.8828    0.0000 C   0  0  0  0  0  0  0  0  0  0  0  0
   -0.7021   -1.0584    0.0000 C   0  0  0  0  0  0  0  0  0  0  0  0
    0.0105    0.1780    0.0000 C   0  0  0  0  0  0  0  0  0  0  0  0
   -0.3073   -2.6793    0.0000 C   0  0  0  0  0  0  0  0  0  0  0  0
   -1.0234   -1.4392    0.0000 C   0  0  0  0  0  0  0  0  0  0  0  0
    2.1483   -1.0654    0.0000 N   0  0  0  0  0  0  0  0  0  0  0  0
    1.4357    0.1746    0.0000 O   0  0  0  0  0  0  0  0  0  0  0  0
    1.4288   -2.2950    0.0000 C   0  0  0  0  0  0  0  0  0  0  0  0
   -1.4112   -0.6497    0.0000 C   0  0  0  0  0  0  0  0  0  0  0  0
   -0.7055    0.5903    0.0000 C   0  0  0  0  0  0  0  0  0  0  0  0
   -1.0234   -3.0880    0.0000 C   0  0  0  0  0  0  0  0  0  0  0  0
   -1.7326   -1.8549    0.0000 C   0  0  0  0  0  0  0  0  0  0  0  0
    2.1449   -1.8864    0.0000 C   0  0  0  0  0  0  0  0  0  0  0  0
   -1.4112    0.1746    0.0000 N   0  0  0  0  0  0  0  0  0  0  0  0
   -1.7361   -2.6828    0.0000 C   0  0  0  0  0  0  0  0  0  0  0  0
    2.8575   -2.3020    0.0000 O   0  0  0  0  0  0  0  0  0  0  0  0
   -2.1274    0.5833    0.0000 C   0  0  0  0  0  0  0  0  0  0  0  0
   -2.1274    1.4182    0.0000 C   0  0  0  0  0  0  0  0  0  0  0  0
   -1.4042    1.8374    0.0000 C   0  0  0  0  0  0  0  0  0  0  0  0
   -2.8505    1.8304    0.0000 C   0  0  0  0  0  0  0  0  0  0  0  0
   -1.4077    2.6723    0.0000 C   0  0  0  0  0  0  0  0  0  0  0  0
   -2.8575    2.6618    0.0000 C   0  0  0  0  0  0  0  0  0  0  0  0
   -2.1308    3.0880    0.0000 C   0  0  0  0  0  0  0  0  0  0  0  0
  1  2  1  0  0  0  0
  1  3  1  6  0  0  0
  1  4  1  0  0  0  0
  1  5  1  0  0  0  0
  2  6  1  0  0  0  0
  2  7  1  0  0  0  0
  3  8  1  0  0  0  0
  3  9  2  0  0  0  0
  4 10  1  0  0  0  0
  4 11  2  0  0  0  0
  5 12  1  0  0  0  0
  6 13  1  0  0  0  0
  7 14  1  0  0  0  0
  8 15  2  0  0  0  0
  9 16  1  0  0  0  0
 10 17  1  0  0  0  0
 13 18  1  0  0  0  0
 15 19  1  0  0  0  0
 17 20  2  0  0  0  0
 18 21  1  0  0  0  0
 21 22  1  0  0  0  0
 22 23  2  0  0  0  0
 22 24  1  0  0  0  0
 23 25  1  0  0  0  0
 24 26  2  0  0  0  0
 25 27  2  0  0  0  0
 12 17  1  0  0  0  0
 14 18  1  0  0  0  0
 16 19  2  0  0  0  0
 26 27  1  0  0  0  0
M  END
> <DATABASE_ID>
DB08997

> <DATABASE_NAME>
drugbank

> <SMILES>
O=C1CC[C@@](C2CCN(CC3=CC=CC=C3)CC2)(C(=O)N1)C1=CC=CC=C1

> <INCHI_IDENTIFIER>
InChI=1S/C23H26N2O2/c26-21-11-14-23(22(27)24-21,19-9-5-2-6-10-19)20-12-15-25(16-13-20)17-18-7-3-1-4-8-18/h1-10,20H,11-17H2,(H,24,26,27)/t23-/m1/s1

> <INCHI_KEY>
LQQIVYSCPWCSSD-HSZRJFAPSA-N

> <FORMULA>
C23H26N2O2

> <MOLECULAR_WEIGHT>
362.4647

> <EXACT_MASS>
362.199428086

> <JCHEM_ACCEPTOR_COUNT>
3

> <JCHEM_ATOM_COUNT>
53

> <JCHEM_AVERAGE_NEUTRAL_MICROSPECIES_CHARGE>
0.9784301835195395

> <JCHEM_AVERAGE_POLARIZABILITY>
40.51678226907438

> <JCHEM_BIOAVAILABILITY>
1

> <JCHEM_DONOR_COUNT>
1

> <JCHEM_FORMAL_CHARGE>
0

> <JCHEM_GHOSE_FILTER>
1

> <JCHEM_IUPAC>
(3S)-1'-benzyl-3-phenyl-[3,4'-bipiperidine]-2,6-dione

> <ALOGPS_LOGP>
3.54

> <JCHEM_LOGP>
3.3830662353333327

> <ALOGPS_LOGS>
-4.89

> <JCHEM_MDDR_LIKE_RULE>
0

> <JCHEM_NEUTRAL_CHARGE>
1

> <JCHEM_NUMBER_OF_RINGS>
4

> <JCHEM_PHYSIOLOGICAL_CHARGE>
1

> <JCHEM_PKA_STRONGEST_ACIDIC>
11.68951715187842

> <JCHEM_PKA_STRONGEST_BASIC>
8.657104590532573

> <JCHEM_POLAR_SURFACE_AREA>
49.410000000000004

> <JCHEM_REFRACTIVITY>
106.34

> <JCHEM_ROTATABLE_BOND_COUNT>
4

> <JCHEM_RULE_OF_FIVE>
1

> <ALOGPS_SOLUBILITY>
4.69e-03 g/l

> <JCHEM_TRADITIONAL_IUPAC>
edaglitazone

> <JCHEM_VEBER_RULE>
0

> <DRUGBANK_ID>
DB08997

> <DRUG_GROUPS>
withdrawn

> <GENERIC_NAME>
Dexetimide

> <SYNONYMS>
Dexetimida; Dexetimide; Dexetimidum

> <INTERNATIONAL_BRANDS>
Tremblex

> <SALTS>
Dexetimide hydrochloride

$$$$

  Mrv1652306031606262D          

 10 10  0  0  0  0            999 V2000
    1.9967    1.9393    0.0000 C   0  0  0  0  0  0  0  0  0  0  0  0
    1.9967    3.5893    0.0000 C   0  0  0  0  0  0  0  0  0  0  0  0
    0.1553   -0.1553    0.0000 C   0  0  0  0  0  0  0  0  0  0  0  0
    0.9803   -0.1553    0.0000 C   0  0  0  0  0  0  0  0  0  0  0  0
   -0.0997    0.6294    0.0000 C   0  0  0  0  0  0  0  0  0  0  0  0
    1.2352    0.6294    0.0000 C   0  0  0  0  0  0  0  0  0  0  0  0
    0.5678    1.9393    0.0000 C   0  0  0  0  0  0  0  0  0  0  0  0
    1.2822    2.3518    0.0000 C   0  0  0  0  0  0  0  0  0  0  0  0
    0.5678    1.1143    0.0000 C   0  0  0  0  0  0  0  0  0  0  0  0
    1.2822    3.1768    0.0000 N   0  0  0  0  0  0  0  0  0  0  0  0
  4  3  1  0  0  0  0
  5  3  1  0  0  0  0
  6  4  1  0  0  0  0
  8  1  1  0  0  0  0
  8  7  1  0  0  0  0
  9  5  1  0  0  0  0
  9  6  1  0  0  0  0
  9  7  1  0  0  0  0
 10  2  1  0  0  0  0
 10  8  1  0  0  0  0
M  END
> <DATABASE_ID>
DB08999

> <DATABASE_NAME>
drugbank

> <SMILES>
CNC(C)CC1CCCC1

> <INCHI_IDENTIFIER>
InChI=1S/C9H19N/c1-8(10-2)7-9-5-3-4-6-9/h8-10H,3-7H2,1-2H3

> <INCHI_KEY>
HFXKQSZZZPGLKQ-UHFFFAOYSA-N

> <FORMULA>
C9H19N

> <MOLECULAR_WEIGHT>
141.258

> <EXACT_MASS>
141.151749616

> <JCHEM_ACCEPTOR_COUNT>
1

> <JCHEM_ATOM_COUNT>
29

> <JCHEM_AVERAGE_POLARIZABILITY>
18.39844018267545

> <JCHEM_BIOAVAILABILITY>
1

> <JCHEM_DONOR_COUNT>
1

> <JCHEM_FORMAL_CHARGE>
0

> <JCHEM_GHOSE_FILTER>
0

> <JCHEM_IUPAC>
(1-cyclopentylpropan-2-yl)(methyl)amine

> <ALOGPS_LOGP>
2.86

> <JCHEM_LOGP>
2.260026091333333

> <ALOGPS_LOGS>
-2.47

> <JCHEM_MDDR_LIKE_RULE>
0

> <JCHEM_NUMBER_OF_RINGS>
1

> <JCHEM_PHYSIOLOGICAL_CHARGE>
1

> <JCHEM_PKA_STRONGEST_BASIC>
10.614016211465419

> <JCHEM_POLAR_SURFACE_AREA>
12.03

> <JCHEM_REFRACTIVITY>
44.9342

> <JCHEM_ROTATABLE_BOND_COUNT>
3

> <JCHEM_RULE_OF_FIVE>
1

> <ALOGPS_SOLUBILITY>
4.76e-01 g/l

> <JCHEM_TRADITIONAL_IUPAC>
sinos

> <JCHEM_VEBER_RULE>
1

> <DRUGBANK_ID>
DB08999

> <DRUG_GROUPS>
withdrawn

> <GENERIC_NAME>
Cyclopentamine

> <SALTS>
Cyclopentamine hydrochloride

$$$$

  Mrv0541 05061306242D          

 17 17  0  0  0  0            999 V2000
   -1.4289   -1.6500    0.0000 C   0  0  0  0  0  0  0  0  0  0  0  0
   -0.4125   -0.9355    0.0000 C   0  0  0  0  0  0  0  0  0  0  0  0
   -1.4289   -4.1250    0.0000 C   0  0  0  0  0  0  0  0  0  0  0  0
   -2.1434   -2.8875    0.0000 C   0  0  0  0  0  0  0  0  0  0  0  0
    1.4289    0.0000    0.0000 C   0  0  0  0  0  0  0  0  0  0  0  0
    0.0000    0.0000    0.0000 C   0  0  0  0  0  0  0  0  0  0  0  0
    1.4289    0.8250    0.0000 C   0  0  0  0  0  0  0  0  0  0  0  0
    0.0000    0.8250    0.0000 C   0  0  0  0  0  0  0  0  0  0  0  0
    0.7145   -1.2375    0.0000 C   0  0  0  0  0  0  0  0  0  0  0  0
   -0.7145   -2.8875    0.0000 C   0  0  0  0  0  0  0  0  0  0  0  0
   -0.7145   -2.0625    0.0000 C   0  0  0  0  0  0  0  0  0  0  0  0
    0.7145   -0.4125    0.0000 C   0  0  0  0  0  0  0  0  0  0  0  0
    0.7145    1.2375    0.0000 C   0  0  0  0  0  0  0  0  0  0  0  0
    0.0000   -1.6500    0.0000 C   0  0  0  0  0  0  0  0  0  0  0  0
    0.7145    2.0625    0.0000 Cl  0  0  0  0  0  0  0  0  0  0  0  0
   -1.4289   -3.3000    0.0000 N   0  0  0  0  0  0  0  0  0  0  0  0
    0.4125   -2.3645    0.0000 O   0  0  0  0  0  0  0  0  0  0  0  0
  7  5  1  0  0  0  0
  8  6  2  0  0  0  0
 11  1  1  0  0  0  0
 11 10  1  0  0  0  0
 12  5  2  0  0  0  0
 12  6  1  0  0  0  0
 12  9  1  0  0  0  0
 13  7  2  0  0  0  0
 13  8  1  0  0  0  0
 14  2  1  0  0  0  0
 14  9  1  0  0  0  0
 14 11  1  0  0  0  0
 15 13  1  0  0  0  0
 16  3  1  0  0  0  0
 16  4  1  0  0  0  0
 16 10  1  0  0  0  0
 17 14  1  0  0  0  0
M  END
> <DATABASE_ID>
DB09004

> <DATABASE_NAME>
drugbank

> <SMILES>
CC(CN(C)C)C(C)(O)CC1=CC=C(Cl)C=C1

> <INCHI_IDENTIFIER>
InChI=1S/C14H22ClNO/c1-11(10-16(3)4)14(2,17)9-12-5-7-13(15)8-6-12/h5-8,11,17H,9-10H2,1-4H3

> <INCHI_KEY>
KVHHQGIIZCJATJ-UHFFFAOYSA-N

> <FORMULA>
C14H22ClNO

> <MOLECULAR_WEIGHT>
255.784

> <EXACT_MASS>
255.138992038

> <JCHEM_ACCEPTOR_COUNT>
2

> <JCHEM_AVERAGE_POLARIZABILITY>
28.85317005998315

> <JCHEM_BIOAVAILABILITY>
1

> <JCHEM_DONOR_COUNT>
1

> <JCHEM_FORMAL_CHARGE>
0

> <JCHEM_GHOSE_FILTER>
1

> <JCHEM_IUPAC>
1-(4-chlorophenyl)-4-(dimethylamino)-2,3-dimethylbutan-2-ol

> <ALOGPS_LOGP>
3.15

> <JCHEM_LOGP>
2.9968734889999995

> <ALOGPS_LOGS>
-2.68

> <JCHEM_MDDR_LIKE_RULE>
0

> <JCHEM_NUMBER_OF_RINGS>
1

> <JCHEM_PHYSIOLOGICAL_CHARGE>
1

> <JCHEM_PKA_STRONGEST_ACIDIC>
14.636906330307433

> <JCHEM_PKA_STRONGEST_BASIC>
9.412844860988665

> <JCHEM_POLAR_SURFACE_AREA>
23.47

> <JCHEM_REFRACTIVITY>
74.043

> <JCHEM_ROTATABLE_BOND_COUNT>
5

> <JCHEM_RULE_OF_FIVE>
1

> <ALOGPS_SOLUBILITY>
5.35e-01 g/l

> <JCHEM_TRADITIONAL_IUPAC>
iversal

> <JCHEM_VEBER_RULE>
1

> <DRUGBANK_ID>
DB09004

> <DRUG_GROUPS>
withdrawn

> <GENERIC_NAME>
Clobutinol

> <SALTS>
Clobutinol hydrochloride

$$$$

  Mrv1652309181721572D          

 21 22  0  0  0  0            999 V2000
    0.1105    5.1414    0.0000 C   0  0  0  0  0  0  0  0  0  0  0  0
    3.4105    2.8875    0.0000 C   0  0  0  0  0  0  0  0  0  0  0  0
    2.1730    2.1730    0.0000 C   0  0  0  0  0  0  0  0  0  0  0  0
    0.1105    1.8414    0.0000 C   0  0  0  0  0  0  0  0  0  0  0  0
    0.8250    2.2538    0.0000 C   0  0  0  0  0  0  0  0  0  0  0  0
   -0.6039    2.2538    0.0000 C   0  0  0  0  0  0  0  0  0  0  0  0
    0.8250    3.0789    0.0000 C   0  0  0  0  0  0  0  0  0  0  0  0
   -0.6039    3.0789    0.0000 C   0  0  0  0  0  0  0  0  0  0  0  0
   -1.1269    5.0309    0.0000 C   0  0  0  0  0  0  0  0  0  0  0  0
   -1.1269    3.6019    0.0000 C   0  0  0  0  0  0  0  0  0  0  0  0
   -1.9519    5.0309    0.0000 C   0  0  0  0  0  0  0  0  0  0  0  0
   -1.9519    3.6019    0.0000 C   0  0  0  0  0  0  0  0  0  0  0  0
    2.1730    3.6019    0.0000 C   0  0  0  0  0  0  0  0  0  0  0  0
    1.3480    3.6019    0.0000 C   0  0  0  0  0  0  0  0  0  0  0  0
    0.1105    3.4914    0.0000 C   0  0  0  0  0  0  0  0  0  0  0  0
   -0.7144    4.3164    0.0000 C   0  0  0  0  0  0  0  0  0  0  0  0
   -2.3644    4.3164    0.0000 C   0  0  0  0  0  0  0  0  0  0  0  0
    0.1105    4.3164    0.0000 C   0  0  0  0  0  0  0  0  0  0  0  0
   -3.1894    4.3164    0.0000 Cl  0  0  0  0  0  0  0  0  0  0  0  0
    2.5855    2.8875    0.0000 N   0  0  0  0  0  0  0  0  0  0  0  0
    0.9355    4.3164    0.0000 O   0  0  0  0  0  0  0  0  0  0  0  0
  5  4  2  0  0  0  0
  6  4  1  0  0  0  0
  7  5  1  0  0  0  0
  8  6  2  0  0  0  0
 11  9  1  0  0  0  0
 12 10  2  0  0  0  0
 14 13  1  0  0  0  0
 15  7  2  0  0  0  0
 15  8  1  0  0  0  0
 16  9  2  0  0  0  0
 16 10  1  0  0  0  0
 17 11  2  0  0  0  0
 17 12  1  0  0  0  0
 18  1  1  0  0  0  0
 18 15  1  0  0  0  0
 18 16  1  0  0  0  0
 19 17  1  0  0  0  0
 20  2  1  0  0  0  0
 20  3  1  0  0  0  0
 20 13  1  0  0  0  0
 21 14  1  0  0  0  0
 21 18  1  0  0  0  0
M  END
> <DATABASE_ID>
DB09007

> <DATABASE_NAME>
drugbank

> <SMILES>
CN(C)CCOC(C)(C1=CC=CC=C1)C1=CC=C(Cl)C=C1

> <INCHI_IDENTIFIER>
InChI=1S/C18H22ClNO/c1-18(21-14-13-20(2)3,15-7-5-4-6-8-15)16-9-11-17(19)12-10-16/h4-12H,13-14H2,1-3H3

> <INCHI_KEY>
KKHPNPMTPORSQE-UHFFFAOYSA-N

> <FORMULA>
C18H22ClNO

> <MOLECULAR_WEIGHT>
303.826

> <EXACT_MASS>
303.138992038

> <JCHEM_ACCEPTOR_COUNT>
2

> <JCHEM_ATOM_COUNT>
43

> <JCHEM_AVERAGE_POLARIZABILITY>
34.03136075683058

> <JCHEM_BIOAVAILABILITY>
1

> <JCHEM_DONOR_COUNT>
0

> <JCHEM_FORMAL_CHARGE>
0

> <JCHEM_GHOSE_FILTER>
1

> <JCHEM_IUPAC>
{2-[1-(4-chlorophenyl)-1-phenylethoxy]ethyl}dimethylamine

> <ALOGPS_LOGP>
4.45

> <JCHEM_LOGP>
4.397809001333334

> <ALOGPS_LOGS>
-4.72

> <JCHEM_MDDR_LIKE_RULE>
0

> <JCHEM_NUMBER_OF_RINGS>
2

> <JCHEM_PHYSIOLOGICAL_CHARGE>
1

> <JCHEM_PKA_STRONGEST_BASIC>
8.866470050489616

> <JCHEM_POLAR_SURFACE_AREA>
12.47

> <JCHEM_REFRACTIVITY>
89.571

> <JCHEM_ROTATABLE_BOND_COUNT>
6

> <JCHEM_RULE_OF_FIVE>
1

> <ALOGPS_SOLUBILITY>
5.82e-03 g/l

> <JCHEM_TRADITIONAL_IUPAC>
systral

> <JCHEM_VEBER_RULE>
1

> <DRUGBANK_ID>
DB09007

> <DRUG_GROUPS>
withdrawn

> <GENERIC_NAME>
Chlorphenoxamine

> <INTERNATIONAL_BRANDS>
Sistral; Systral

> <SALTS>
Chlorphenoxamine hydrochloride

$$$$

  Mrv1909 01172002362D          

 29 32  0  0  0  0            999 V2000
    0.3638    0.8269    0.0000 C   0  0  2  0  0  0  0  0  0  0  0  0
    0.3638    0.0024    0.0000 N   0  0  0  0  0  0  0  0  0  0  0  0
    1.0778   -0.4098    0.0000 C   0  0  0  0  0  0  0  0  0  0  0  0
    1.7919    0.0024    0.0000 C   0  0  0  0  0  0  0  0  0  0  0  0
    1.7919    0.8269    0.0000 C   0  0  0  0  0  0  0  0  0  0  0  0
    1.0778    1.2390    0.0000 S   0  0  0  0  0  0  0  0  0  0  0  0
   -0.4606    0.8269    0.0000 C   0  0  1  0  0  0  0  0  0  0  0  0
   -0.4606    0.0024    0.0000 C   0  0  0  0  0  0  0  0  0  0  0  0
   -1.1746    1.2390    0.0000 N   0  0  0  0  0  0  0  0  0  0  0  0
   -1.8888    0.8269    0.0000 C   0  0  0  0  0  0  0  0  0  0  0  0
   -1.8888    0.0024    0.0000 O   0  0  0  0  0  0  0  0  0  0  0  0
   -1.1746   -0.4098    0.0000 O   0  0  0  0  0  0  0  0  0  0  0  0
   -2.6026    1.2390    0.0000 C   0  0  0  0  0  0  0  0  0  0  0  0
    2.5170   -0.4163    0.0000 C   0  0  0  0  0  0  0  0  0  0  0  0
    1.0778   -1.2342    0.0000 C   0  0  0  0  0  0  0  0  0  0  0  0
    0.3539   -1.6522    0.0000 O   0  0  0  0  0  0  0  0  0  0  0  0
    1.7819   -1.6407    0.0000 O   0  5  0  0  0  0  0  0  0  0  0  0
   -3.3282    0.8199    0.0000 C   0  0  0  0  0  0  0  0  0  0  0  0
    0.3638    1.6522    0.0000 H   0  0  0  0  0  0  0  0  0  0  0  0
    3.2338   -0.0025    0.0000 N   0  3  0  0  0  0  0  0  0  0  0  0
    3.9484   -0.4150    0.0000 C   0  0  0  0  0  0  0  0  0  0  0  0
    4.6629   -0.0025    0.0000 C   0  0  0  0  0  0  0  0  0  0  0  0
    4.6629    0.8225    0.0000 C   0  0  0  0  0  0  0  0  0  0  0  0
    3.9484    1.2351    0.0000 C   0  0  0  0  0  0  0  0  0  0  0  0
    3.2338    0.8225    0.0000 C   0  0  0  0  0  0  0  0  0  0  0  0
   -3.9904    1.3108    0.0000 S   0  0  0  0  0  0  0  0  0  0  0  0
   -4.6629    0.8322    0.0000 C   0  0  0  0  0  0  0  0  0  0  0  0
   -4.4155    0.0448    0.0000 C   0  0  0  0  0  0  0  0  0  0  0  0
   -3.5902    0.0367    0.0000 C   0  0  0  0  0  0  0  0  0  0  0  0
  1  2  1  0  0  0  0
  2  3  1  0  0  0  0
  3  4  2  0  0  0  0
  4  5  1  0  0  0  0
  5  6  1  0  0  0  0
  1  6  1  0  0  0  0
  1  7  1  0  0  0  0
  7  8  1  0  0  0  0
  2  8  1  0  0  0  0
  7  9  1  1  0  0  0
  9 10  1  0  0  0  0
 10 11  2  0  0  0  0
  8 12  2  0  0  0  0
 10 13  1  0  0  0  0
  4 14  1  0  0  0  0
  3 15  1  0  0  0  0
 15 16  2  0  0  0  0
 15 17  1  0  0  0  0
 13 18  1  0  0  0  0
  1 19  1  6  0  0  0
 14 20  1  0  0  0  0
 20 21  2  0  0  0  0
 21 22  1  0  0  0  0
 22 23  2  0  0  0  0
 23 24  1  0  0  0  0
 24 25  2  0  0  0  0
 20 25  1  0  0  0  0
 18 26  1  0  0  0  0
 26 27  1  0  0  0  0
 27 28  2  0  0  0  0
 28 29  1  0  0  0  0
 18 29  2  0  0  0  0
M  CHG  2  17  -1  20   1
M  END
> <DATABASE_ID>
DB09008

> <DATABASE_NAME>
drugbank

> <SMILES>
[H][C@]12SCC(C[N+]3=CC=CC=C3)=C(N1C(=O)[C@H]2NC(=O)CC1=CC=CS1)C([O-])=O

> <INCHI_IDENTIFIER>
InChI=1S/C19H17N3O4S2/c23-14(9-13-5-4-8-27-13)20-15-17(24)22-16(19(25)26)12(11-28-18(15)22)10-21-6-2-1-3-7-21/h1-8,15,18H,9-11H2,(H-,20,23,25,26)/t15-,18-/m1/s1

> <INCHI_KEY>
CZTQZXZIADLWOZ-CRAIPNDOSA-N

> <FORMULA>
C19H17N3O4S2

> <MOLECULAR_WEIGHT>
415.486

> <EXACT_MASS>
415.066047427

> <JCHEM_ACCEPTOR_COUNT>
5

> <JCHEM_ATOM_COUNT>
45

> <JCHEM_AVERAGE_NEUTRAL_MICROSPECIES_CHARGE>
0.0027190106743945064

> <JCHEM_AVERAGE_POLARIZABILITY>
41.4871630342285

> <JCHEM_BIOAVAILABILITY>
1

> <JCHEM_DONOR_COUNT>
1

> <JCHEM_FORMAL_CHARGE>
0

> <JCHEM_GHOSE_FILTER>
0

> <JCHEM_IUPAC>
1-{[(6R,7R)-2-carboxylato-7-{[1-hydroxy-2-(thiophen-2-yl)ethylidene]amino}-8-oxo-5-thia-1-azabicyclo[4.2.0]oct-2-en-3-yl]methyl}pyridin-1-ium

> <ALOGPS_LOGP>
-1.00

> <JCHEM_LOGP>
-2.2744662788050785

> <ALOGPS_LOGS>
-5.09

> <JCHEM_MDDR_LIKE_RULE>
1

> <JCHEM_NEUTRAL_CHARGE>
0

> <JCHEM_NUMBER_OF_RINGS>
4

> <JCHEM_PHYSIOLOGICAL_CHARGE>
0

> <JCHEM_PKA>
4.530146187677464

> <JCHEM_PKA_STRONGEST_ACIDIC>
3.0590808852597124

> <JCHEM_PKA_STRONGEST_BASIC>
-0.017076763719868864

> <JCHEM_POLAR_SURFACE_AREA>
96.91

> <JCHEM_REFRACTIVITY>
117.79649999999997

> <JCHEM_ROTATABLE_BOND_COUNT>
6

> <JCHEM_RULE_OF_FIVE>
1

> <ALOGPS_SOLUBILITY>
3.83e-03 g/l

> <JCHEM_TRADITIONAL_IUPAC>
edaglitazone

> <JCHEM_VEBER_RULE>
0

> <DRUGBANK_ID>
DB09008

> <DRUG_GROUPS>
experimental; withdrawn

> <GENERIC_NAME>
Cefaloridine

> <SYNONYMS>
(6R,7R)-8-oxo-3-(pyridin-1-ium-1-ylmethyl)- 7-[(2-thiophen-2-ylacetyl)amino]-5-thia-1- azabicyclo[4.2.0]oct-2-ene-2-carboxylate; Cefaloridin; Cefaloridina; Céfaloridine; Cefaloridine; Cefaloridinum; Cephalomycine; Cephaloridine

> <INTERNATIONAL_BRANDS>
Cephalin; Ceporan; Kefloridin; Loridine

$$$$

  Mrv1909 12021904002D          

 18 18  0  0  0  0            999 V2000
    0.7063    1.2406    0.0000 N   0  0  0  0  0  0  0  0  0  0  0  0
   -0.0054    1.6538    0.0000 C   0  0  0  0  0  0  0  0  0  0  0  0
    1.4237    1.6564    0.0000 C   0  0  0  0  0  0  0  0  0  0  0  0
    0.7155    0.4088    0.0000 C   0  0  0  0  0  0  0  0  0  0  0  0
   -0.0099    2.4767    0.0000 N   0  0  0  0  0  0  0  0  0  0  0  0
   -0.7210    1.2390    0.0000 O   0  0  0  0  0  0  0  0  0  0  0  0
    1.4228    2.4815    0.0000 C   0  0  0  0  0  0  0  0  0  0  0  0
    0.0053   -0.0032    0.0000 N   0  0  0  0  0  0  0  0  0  0  0  0
    1.4421    0.0008    0.0000 O   0  0  0  0  0  0  0  0  0  0  0  0
    0.7073    2.8923    0.0000 C   0  0  0  0  0  0  0  0  0  0  0  0
    2.1349    2.8941    0.0000 F   0  0  0  0  0  0  0  0  0  0  0  0
    0.0036   -0.8288    0.0000 C   0  0  0  0  0  0  0  0  0  0  0  0
    0.7119    3.7246    0.0000 O   0  0  0  0  0  0  0  0  0  0  0  0
   -0.7090   -1.2453    0.0000 C   0  0  0  0  0  0  0  0  0  0  0  0
   -0.7103   -2.0703    0.0000 C   0  0  0  0  0  0  0  0  0  0  0  0
   -1.4231   -2.4868    0.0000 C   0  0  0  0  0  0  0  0  0  0  0  0
   -1.4243   -3.3117    0.0000 C   0  0  0  0  0  0  0  0  0  0  0  0
   -2.1349   -3.7246    0.0000 C   0  0  0  0  0  0  0  0  0  0  0  0
  1  2  1  0  0  0  0
  1  3  1  0  0  0  0
  1  4  1  0  0  0  0
  2  5  1  0  0  0  0
  2  6  2  0  0  0  0
  3  7  2  0  0  0  0
  4  8  1  0  0  0  0
  4  9  2  0  0  0  0
  5 10  1  0  0  0  0
  7 11  1  0  0  0  0
  8 12  1  0  0  0  0
 10 13  2  0  0  0  0
 12 14  1  0  0  0  0
 14 15  1  0  0  0  0
 15 16  1  0  0  0  0
 16 17  1  0  0  0  0
 17 18  1  0  0  0  0
  7 10  1  0  0  0  0
M  END
> <DATABASE_ID>
DB09010

> <DATABASE_NAME>
drugbank

> <SMILES>
CCCCCCNC(=O)N1C=C(F)C(=O)NC1=O

> <INCHI_IDENTIFIER>
InChI=1S/C11H16FN3O3/c1-2-3-4-5-6-13-10(17)15-7-8(12)9(16)14-11(15)18/h7H,2-6H2,1H3,(H,13,17)(H,14,16,18)

> <INCHI_KEY>
AOCCBINRVIKJHY-UHFFFAOYSA-N

> <FORMULA>
C11H16FN3O3

> <MOLECULAR_WEIGHT>
257.2614

> <EXACT_MASS>
257.117569598

> <JCHEM_ACCEPTOR_COUNT>
3

> <JCHEM_ATOM_COUNT>
34

> <JCHEM_AVERAGE_POLARIZABILITY>
25.65906658215677

> <JCHEM_BIOAVAILABILITY>
1

> <JCHEM_DONOR_COUNT>
2

> <JCHEM_FORMAL_CHARGE>
0

> <JCHEM_GHOSE_FILTER>
1

> <JCHEM_IUPAC>
5-fluoro-N-hexyl-2,4-dioxo-1,2,3,4-tetrahydropyrimidine-1-carboxamide

> <ALOGPS_LOGP>
2.57

> <JCHEM_LOGP>
1.4359270923333334

> <ALOGPS_LOGS>
-3.72

> <JCHEM_MDDR_LIKE_RULE>
0

> <JCHEM_NUMBER_OF_RINGS>
1

> <JCHEM_PHYSIOLOGICAL_CHARGE>
0

> <JCHEM_PKA>
14.810617501130789

> <JCHEM_PKA_STRONGEST_ACIDIC>
7.882169930301789

> <JCHEM_PKA_STRONGEST_BASIC>
-8.346319809638858

> <JCHEM_POLAR_SURFACE_AREA>
78.51

> <JCHEM_REFRACTIVITY>
62.38710000000001

> <JCHEM_ROTATABLE_BOND_COUNT>
5

> <JCHEM_RULE_OF_FIVE>
1

> <ALOGPS_SOLUBILITY>
4.91e-02 g/l

> <JCHEM_TRADITIONAL_IUPAC>
4-{5-methoxy-2-[(4-methoxy-3,5-dimethylpyridin-2-yl)methanesulfinyl]-1,3-benzodiazol-1-ylsulfonyl}phenoxyacetic acid

> <JCHEM_VEBER_RULE>
0

> <DRUGBANK_ID>
DB09010

> <DRUG_GROUPS>
withdrawn

> <GENERIC_NAME>
Carmofur

> <SYNONYMS>
Carmofur

> <INTERNATIONAL_BRANDS>
Mifurol; Yamaful

$$$$

  Mrv1572012161520492D          

 17 18  0  0  0  0            999 V2000
    2.5528   -1.3543    0.0000 O   0  0  0  0  0  0  0  0  0  0  0  0
   -0.6339    0.9260    0.0000 O   0  0  0  0  0  0  0  0  0  0  0  0
   -2.0634   -1.5545    0.0000 O   0  0  0  0  0  0  0  0  0  0  0  0
    2.2970    0.7647    0.0000 N   0  0  0  0  0  0  0  0  0  0  0  0
   -0.6339   -0.7257    0.0000 N   0  0  0  0  0  0  0  0  0  0  0  0
   -1.3515   -0.3142    0.0000 N   0  0  0  0  0  0  0  0  0  0  0  0
   -2.7809   -0.3142    0.0000 N   0  0  0  0  0  0  0  0  0  0  0  0
    1.5072   -0.3142    0.0000 C   0  0  0  0  0  0  0  0  0  0  0  0
    1.5072    0.5089    0.0000 C   0  0  0  0  0  0  0  0  0  0  0  0
    2.2970   -0.5700    0.0000 C   0  0  0  0  0  0  0  0  0  0  0  0
    0.0778   -0.3142    0.0000 C   0  0  0  0  0  0  0  0  0  0  0  0
    0.7953   -0.7257    0.0000 C   0  0  0  0  0  0  0  0  0  0  0  0
    0.0778    0.5089    0.0000 C   0  0  0  0  0  0  0  0  0  0  0  0
    0.7953    0.9260    0.0000 C   0  0  0  0  0  0  0  0  0  0  0  0
    2.7809    0.0973    0.0000 C   0  0  0  0  0  0  0  0  0  0  0  0
    2.5473    1.5545    0.0000 C   0  0  0  0  0  0  0  0  0  0  0  0
   -2.0634   -0.7313    0.0000 C   0  0  0  0  0  0  0  0  0  0  0  0
  1 10  1  0  0  0  0
  2 13  2  0  0  0  0
  3 17  2  0  0  0  0
  4  9  1  0  0  0  0
  4 15  1  0  0  0  0
  4 16  1  0  0  0  0
  5  6  1  0  0  0  0
  5 11  2  0  0  0  0
  6 17  1  0  0  0  0
  7 17  1  0  0  0  0
  8  9  1  0  0  0  0
  8 10  1  0  0  0  0
  8 12  2  0  0  0  0
  9 14  2  0  0  0  0
 10 15  1  0  0  0  0
 11 12  1  0  0  0  0
 11 13  1  0  0  0  0
 13 14  1  0  0  0  0
M  END
> <DATABASE_ID>
DB09012

> <DATABASE_NAME>
drugbank

> <SMILES>
CN1CC(O)C2=C\C(=N\NC(N)=O)C(=O)C=C12

> <INCHI_IDENTIFIER>
InChI=1S/C10H12N4O3/c1-14-4-9(16)5-2-6(12-13-10(11)17)8(15)3-7(5)14/h2-3,9,16H,4H2,1H3,(H3,11,13,17)/b12-6-

> <INCHI_KEY>
XSXCZNVKFKNLPR-SDQBBNPISA-N

> <FORMULA>
C10H12N4O3

> <MOLECULAR_WEIGHT>
236.231

> <EXACT_MASS>
236.090940262

> <JCHEM_ACCEPTOR_COUNT>
5

> <JCHEM_ATOM_COUNT>
29

> <JCHEM_AVERAGE_POLARIZABILITY>
23.088957709174483

> <JCHEM_BIOAVAILABILITY>
1

> <JCHEM_DONOR_COUNT>
3

> <JCHEM_FORMAL_CHARGE>
0

> <JCHEM_GHOSE_FILTER>
0

> <JCHEM_IUPAC>
{[(5Z)-3-hydroxy-1-methyl-6-oxo-2,3,5,6-tetrahydro-1H-indol-5-ylidene]amino}urea

> <ALOGPS_LOGP>
-0.47

> <JCHEM_LOGP>
-1.2234083796666664

> <ALOGPS_LOGS>
-1.91

> <JCHEM_MDDR_LIKE_RULE>
0

> <JCHEM_NUMBER_OF_RINGS>
2

> <JCHEM_PHYSIOLOGICAL_CHARGE>
0

> <JCHEM_PKA>
14.125876783565523

> <JCHEM_PKA_STRONGEST_ACIDIC>
11.640177343591024

> <JCHEM_PKA_STRONGEST_BASIC>
1.9761649317534462

> <JCHEM_POLAR_SURFACE_AREA>
108.02

> <JCHEM_REFRACTIVITY>
62.1557

> <JCHEM_ROTATABLE_BOND_COUNT>
1

> <JCHEM_RULE_OF_FIVE>
1

> <ALOGPS_SOLUBILITY>
2.91e+00 g/l

> <JCHEM_TRADITIONAL_IUPAC>
carbazochrome

> <JCHEM_VEBER_RULE>
0

> <DRUGBANK_ID>
DB09012

> <DRUG_GROUPS>
experimental; withdrawn

> <GENERIC_NAME>
Carbazochrome

> <SYNONYMS>
3-Hydroxy-1-methyl-5,6-inodlindionsemicarbazon; Adchnon; Adedolon; Adrenostan; Carbazochrom; Carbazochrome; Carbazochromum; Carbazocromo

> <PRODUCTS>
Igatan F

> <INTERNATIONAL_BRANDS>
Adcar AC; Adona; Adonamin; Adrenochrome; Adrenoxil; Adrome; Almetex; Anaroxyl; Auzei; Carbajust; Chichina; Chromazol; Crome; Cromin's; Di Ka Ning; Fleboside; Fleboton; Ge Dan; Hemosin K; Le Ka Ning; Le Zhi Na; Luoye; Na Neng; Odanon; Ophthalm K; Ranobi; Styptochrome; Su Bo Te; Tai Si Neng; Toxivenol; Velchrome; Xue Yi Ting

$$$$

  Mrv1572004121615042D          

 29 32  0  0  0  0            999 V2000
    3.2547   -0.1813    0.0000 O   0  0  0  0  0  0  0  0  0  0  0  0
   -3.2546   -1.1710    0.0000 O   0  0  0  0  0  0  0  0  0  0  0  0
    0.8387    2.0389    0.0000 O   0  0  0  0  0  0  0  0  0  0  0  0
    2.2640    2.1420    0.0000 O   0  0  0  0  0  0  0  0  0  0  0  0
    1.6179   -0.2997    0.0000 C   0  0  1  0  0  0  0  0  0  0  0  0
    1.3377   -1.0756    0.0000 C   0  0  2  0  0  0  0  0  0  0  0  0
    2.4426   -0.3265    0.0000 C   0  0  2  0  0  0  0  0  0  0  0  0
    0.5256   -1.2208    0.0000 C   0  0  1  0  0  0  0  0  0  0  0  0
   -0.0062   -0.5901    0.0000 C   0  0  1  0  0  0  0  0  0  0  0  0
   -0.8184   -0.7353    0.0000 C   0  0  2  0  0  0  0  0  0  0  0  0
    1.0862    0.3309    0.0000 C   0  0  0  0  0  0  0  0  0  0  0  0
    1.9890   -1.5820    0.0000 C   0  0  0  0  0  0  0  0  0  0  0  0
    2.6719   -1.1190    0.0000 C   0  0  0  0  0  0  0  0  0  0  0  0
   -1.0986   -1.5112    0.0000 C   0  0  0  0  0  0  0  0  0  0  0  0
    0.2740    0.1857    0.0000 C   0  0  0  0  0  0  0  0  0  0  0  0
    0.2452   -1.9967    0.0000 C   0  0  0  0  0  0  0  0  0  0  0  0
    2.3830    0.4963    0.0000 C   0  0  0  0  0  0  0  0  0  0  0  0
    1.9779    0.4426    0.0000 C   0  0  0  0  0  0  0  0  0  0  0  0
   -0.5668   -2.1420    0.0000 C   0  0  0  0  0  0  0  0  0  0  0  0
   -1.3501   -0.1046    0.0000 C   0  0  0  0  0  0  0  0  0  0  0  0
   -1.9108   -1.6565    0.0000 C   0  0  0  0  0  0  0  0  0  0  0  0
   -0.5380    0.0405    0.0000 C   0  0  0  0  0  0  0  0  0  0  0  0
   -2.4425   -1.0258    0.0000 C   0  0  0  0  0  0  0  0  0  0  0  0
   -2.1622   -0.2498    0.0000 C   0  0  0  0  0  0  0  0  0  0  0  0
    1.6406    0.8561    0.0000 C   0  0  0  0  0  0  0  0  0  0  0  0
    1.5811    1.6790    0.0000 C   0  0  0  0  0  0  0  0  0  0  0  0
   -0.6508    0.1743    0.0000 H   0  0  0  0  0  0  0  0  0  0  0  0
    1.1701   -1.9853    0.0000 H   0  0  0  0  0  0  0  0  0  0  0  0
    1.0981   -2.0465    0.0000 H   0  0  0  0  0  0  0  0  0  0  0  0
  7  1  1  1  0  0  0
  2 23  2  0  0  0  0
  3 26  1  0  0  0  0
  4 26  2  0  0  0  0
  5  6  1  0  0  0  0
  5  7  1  0  0  0  0
  5 11  1  0  0  0  0
  5 18  1  1  0  0  0
  6  8  1  0  0  0  0
  6 12  1  0  0  0  0
  7 13  1  0  0  0  0
  7 17  1  0  0  0  0
  8  9  1  0  0  0  0
  8 16  1  0  0  0  0
  9 10  1  0  0  0  0
  9 15  1  0  0  0  0
 10 14  1  0  0  0  0
 10 20  1  0  0  0  0
 10 22  1  1  0  0  0
 11 15  1  0  0  0  0
 12 13  1  0  0  0  0
 14 19  1  0  0  0  0
 14 21  2  0  0  0  0
 16 19  2  0  0  0  0
 17 25  1  0  0  0  0
 20 24  1  0  0  0  0
 21 23  1  0  0  0  0
 23 24  1  0  0  0  0
 25 26  1  0  0  0  0
  9 27  1  6  0  0  0
  8 28  1  1  0  0  0
  6 29  1  6  0  0  0
M  END
> <DATABASE_ID>
DB09015

> <DATABASE_NAME>
drugbank

> <SMILES>
[H][C@@]12CC[C@@](O)(CCC(O)=O)[C@@]1(C)CC[C@@]1([H])[C@@]2([H])C=CC2=CC(=O)CC[C@]12C

> <INCHI_IDENTIFIER>
InChI=1S/C22H30O4/c1-20-9-5-15(23)13-14(20)3-4-16-17(20)6-10-21(2)18(16)7-11-22(21,26)12-8-19(24)25/h3-4,13,16-18,26H,5-12H2,1-2H3,(H,24,25)/t16-,17+,18+,20+,21+,22-/m1/s1

> <INCHI_KEY>
PBKZPPIHUVSDNM-WNHSNXHDSA-N

> <FORMULA>
C22H30O4

> <MOLECULAR_WEIGHT>
358.478

> <EXACT_MASS>
358.214409446

> <JCHEM_ACCEPTOR_COUNT>
4

> <JCHEM_ATOM_COUNT>
56

> <JCHEM_AVERAGE_POLARIZABILITY>
40.435559646023094

> <JCHEM_BIOAVAILABILITY>
1

> <JCHEM_DONOR_COUNT>
2

> <JCHEM_FORMAL_CHARGE>
0

> <JCHEM_GHOSE_FILTER>
1

> <JCHEM_IUPAC>
3-[(1S,2R,10R,11S,14R,15S)-14-hydroxy-2,15-dimethyl-5-oxotetracyclo[8.7.0.0²,⁷.0¹¹,¹⁵]heptadeca-6,8-dien-14-yl]propanoic acid

> <ALOGPS_LOGP>
2.73

> <JCHEM_LOGP>
2.9309276043333328

> <ALOGPS_LOGS>
-3.91

> <JCHEM_MDDR_LIKE_RULE>
0

> <JCHEM_NUMBER_OF_RINGS>
4

> <JCHEM_PHYSIOLOGICAL_CHARGE>
-1

> <JCHEM_PKA>
14.367694604152305

> <JCHEM_PKA_STRONGEST_ACIDIC>
4.480851365704696

> <JCHEM_PKA_STRONGEST_BASIC>
-3.0880352144492083

> <JCHEM_POLAR_SURFACE_AREA>
74.6

> <JCHEM_REFRACTIVITY>
100.975

> <JCHEM_ROTATABLE_BOND_COUNT>
3

> <JCHEM_RULE_OF_FIVE>
1

> <ALOGPS_SOLUBILITY>
4.42e-02 g/l

> <JCHEM_TRADITIONAL_IUPAC>
canrenoic acid

> <JCHEM_VEBER_RULE>
0

> <DRUGBANK_ID>
DB09015

> <DRUG_GROUPS>
approved; withdrawn

> <GENERIC_NAME>
Canrenoic acid

> <SYNONYMS>
ácido canrenoico; Canrenoate

> <INTERNATIONAL_BRANDS>
Soludactone

> <SALTS>
Potassium canrenoate

$$$$

  Mrv0541 06231413442D          

 22 25  0  0  0  0            999 V2000
    1.7099   -2.4055    0.0000 C   0  0  0  0  0  0  0  0  0  0  0  0
    5.0883    1.2320    0.0000 C   0  0  0  0  0  0  0  0  0  0  0  0
    4.9654    2.0478    0.0000 C   0  0  0  0  0  0  0  0  0  0  0  0
    4.4433    0.7176    0.0000 C   0  0  0  0  0  0  0  0  0  0  0  0
    4.1974    2.3492    0.0000 C   0  0  0  0  0  0  0  0  0  0  0  0
    3.9863   -0.5894    0.0000 C   0  0  0  0  0  0  0  0  0  0  0  0
    1.5437    0.5047    0.0000 C   0  0  0  0  0  0  0  0  0  0  0  0
    1.4200   -1.6331    0.0000 C   0  0  0  0  0  0  0  0  0  0  0  0
    3.6753    1.0190    0.0000 C   0  0  0  0  0  0  0  0  0  0  0  0
    3.2139   -0.2996    0.0000 C   0  0  0  0  0  0  0  0  0  0  0  0
    3.5524    1.8348    0.0000 C   0  0  0  0  0  0  0  0  0  0  0  0
    3.9493   -1.4136    0.0000 C   0  0  0  0  0  0  0  0  0  0  0  0
    1.3602   -0.2996    0.0000 C   0  0  0  0  0  0  0  0  0  0  0  0
    3.0303    0.5047    0.0000 C   0  0  0  0  0  0  0  0  0  0  0  0
    2.6995   -0.9446    0.0000 C   0  0  0  0  0  0  0  0  0  0  0  0
    4.5943   -1.9280    0.0000 Br  0  0  0  0  0  0  0  0  0  0  0  0
    2.7844    2.1362    0.0000 Cl  0  0  0  0  0  0  0  0  0  0  0  0
    2.2870    0.8626    0.0000 N   0  0  0  0  0  0  0  0  0  0  0  0
    0.6248   -1.4136    0.0000 N   0  0  0  0  0  0  0  0  0  0  0  0
    0.5878   -0.5894    0.0000 N   0  0  0  0  0  0  0  0  0  0  0  0
    1.8745   -0.9446    0.0000 N   0  0  0  0  0  0  0  0  0  0  0  0
    3.1540   -1.6331    0.0000 S   0  0  0  0  0  0  0  0  0  0  0  0
  3  2  2  0  0  0  0
  4  2  1  0  0  0  0
  5  3  1  0  0  0  0
  8  1  1  0  0  0  0
  9  4  2  0  0  0  0
 10  6  1  0  0  0  0
 11  5  2  0  0  0  0
 11  9  1  0  0  0  0
 12  6  2  0  0  0  0
 13  7  1  0  0  0  0
 14  9  1  0  0  0  0
 14 10  1  0  0  0  0
 15 10  2  0  0  0  0
 16 12  1  0  0  0  0
 17 11  1  0  0  0  0
 18  7  1  0  0  0  0
 18 14  2  0  0  0  0
 19  8  2  0  0  0  0
 20 13  2  0  0  0  0
 20 19  1  0  0  0  0
 21  8  1  0  0  0  0
 21 13  1  0  0  0  0
 21 15  1  0  0  0  0
 22 12  1  0  0  0  0
 22 15  1  0  0  0  0
M  END
> <DATABASE_ID>
DB09017

> <DATABASE_NAME>
drugbank

> <SMILES>
CC1=NN=C2CN=C(C3=C(SC(Br)=C3)N12)C1=CC=CC=C1Cl

> <INCHI_IDENTIFIER>
InChI=1S/C15H10BrClN4S/c1-8-19-20-13-7-18-14(9-4-2-3-5-11(9)17)10-6-12(16)22-15(10)21(8)13/h2-6H,7H2,1H3

> <INCHI_KEY>
UMSGKTJDUHERQW-UHFFFAOYSA-N

> <FORMULA>
C15H10BrClN4S

> <MOLECULAR_WEIGHT>
393.689

> <EXACT_MASS>
391.949807384

> <JCHEM_ACCEPTOR_COUNT>
3

> <JCHEM_AVERAGE_POLARIZABILITY>
34.98556181117153

> <JCHEM_BIOAVAILABILITY>
1

> <JCHEM_DONOR_COUNT>
0

> <JCHEM_FORMAL_CHARGE>
0

> <JCHEM_GHOSE_FILTER>
1

> <JCHEM_IUPAC>
4-bromo-7-(2-chlorophenyl)-13-methyl-3-thia-1,8,11,12-tetraazatricyclo[8.3.0.0²,⁶]trideca-2(6),4,7,10,12-pentaene

> <ALOGPS_LOGP>
3.28

> <JCHEM_LOGP>
2.6843000000000004

> <ALOGPS_LOGS>
-3.83

> <JCHEM_MDDR_LIKE_RULE>
0

> <JCHEM_NUMBER_OF_RINGS>
4

> <JCHEM_PHYSIOLOGICAL_CHARGE>
0

> <JCHEM_PKA_STRONGEST_ACIDIC>
18.492390851771827

> <JCHEM_PKA_STRONGEST_BASIC>
3.8993857084013577

> <JCHEM_POLAR_SURFACE_AREA>
43.07

> <JCHEM_REFRACTIVITY>
101.92739999999999

> <JCHEM_ROTATABLE_BOND_COUNT>
1

> <JCHEM_RULE_OF_FIVE>
1

> <ALOGPS_SOLUBILITY>
5.80e-02 g/l

> <JCHEM_TRADITIONAL_IUPAC>
brotizolam

> <JCHEM_VEBER_RULE>
0

> <DRUGBANK_ID>
DB09017

> <DRUG_GROUPS>
investigational; withdrawn

> <GENERIC_NAME>
Brotizolam

> <SYNONYMS>
Brotizolam; Brotizolamum

> <INTERNATIONAL_BRANDS>
Amnezon; Bondormin; Brometon; Brotizolam M; Dormex; Eurimolan; Goodmin; Lendorm; Lendormin; Lindormin; Nestrom; Noctilan; Noxtal; Ronfleman; Sintonal; Sorentmin; Zestromin

$$$$

  Mrv0541 06251410192D          

 25 26  0  0  0  0            999 V2000
    7.8591   -2.8875    0.0000 C   0  0  0  0  0  0  0  0  0  0  0  0
    2.1434   -2.8875    0.0000 C   0  0  0  0  0  0  0  0  0  0  0  0
    2.1434   -3.7125    0.0000 C   0  0  0  0  0  0  0  0  0  0  0  0
    2.8578   -2.4750    0.0000 C   0  0  0  0  0  0  0  0  0  0  0  0
   10.0025   -2.4750    0.0000 C   0  0  0  0  0  0  0  0  0  0  0  0
    9.2881   -2.8875    0.0000 C   0  0  0  0  0  0  0  0  0  0  0  0
    2.8578   -4.1250    0.0000 C   0  0  0  0  0  0  0  0  0  0  0  0
    3.5723   -2.8875    0.0000 C   0  0  0  0  0  0  0  0  0  0  0  0
   10.7170   -2.8875    0.0000 C   0  0  0  0  0  0  0  0  0  0  0  0
    6.4302   -3.7125    0.0000 C   0  0  0  0  0  0  0  0  0  0  0  0
    5.7157   -4.1250    0.0000 C   0  0  0  0  0  0  0  0  0  0  0  0
    8.5736   -4.1250    0.0000 C   0  0  0  0  0  0  0  0  0  0  0  0
   10.0025   -4.1250    0.0000 C   0  0  0  0  0  0  0  0  0  0  0  0
    7.8591   -3.7125    0.0000 C   0  0  0  0  0  0  0  0  0  0  0  0
    9.2881   -3.7125    0.0000 C   0  0  0  0  0  0  0  0  0  0  0  0
    3.5723   -3.7125    0.0000 C   0  0  0  0  0  0  0  0  0  0  0  0
   10.7170   -3.7125    0.0000 C   0  0  0  0  0  0  0  0  0  0  0  0
    4.2868   -4.1250    0.0000 C   0  0  0  0  0  0  0  0  0  0  0  0
   11.4315   -4.1250    0.0000 C   0  0  0  0  0  0  0  0  0  0  0  0
   12.1460   -4.5375    0.0000 F   0  0  0  0  0  0  0  0  0  0  0  0
   11.0190   -4.8394    0.0000 F   0  0  0  0  0  0  0  0  0  0  0  0
   11.8440   -3.4105    0.0000 F   0  0  0  0  0  0  0  0  0  0  0  0
    7.1447   -4.1250    0.0000 N   0  0  0  0  0  0  0  0  0  0  0  0
    4.2868   -4.9500    0.0000 O   0  0  0  0  0  0  0  0  0  0  0  0
    5.0012   -3.7125    0.0000 O   0  0  0  0  0  0  0  0  0  0  0  0
  3  2  2  0  0  0  0
  4  2  1  0  0  0  0
  6  5  2  0  0  0  0
  7  3  1  0  0  0  0
  8  4  2  0  0  0  0
  9  5  1  0  0  0  0
 11 10  1  0  0  0  0
 14  1  1  0  0  0  0
 14 12  1  0  0  0  0
 15  6  1  0  0  0  0
 15 12  1  0  0  0  0
 15 13  2  0  0  0  0
 16  7  2  0  0  0  0
 16  8  1  0  0  0  0
 17  9  2  0  0  0  0
 17 13  1  0  0  0  0
 18 16  1  0  0  0  0
 19 17  1  0  0  0  0
 20 19  1  0  0  0  0
 21 19  1  0  0  0  0
 22 19  1  0  0  0  0
 23 10  1  0  0  0  0
 23 14  1  0  0  0  0
 24 18  2  0  0  0  0
 25 11  1  0  0  0  0
 25 18  1  0  0  0  0
M  END
> <DATABASE_ID>
DB09022

> <DATABASE_NAME>
drugbank

> <SMILES>
CC(CC1=CC(=CC=C1)C(F)(F)F)NCCOC(=O)C1=CC=CC=C1

> <INCHI_IDENTIFIER>
InChI=1S/C19H20F3NO2/c1-14(12-15-6-5-9-17(13-15)19(20,21)22)23-10-11-25-18(24)16-7-3-2-4-8-16/h2-9,13-14,23H,10-12H2,1H3

> <INCHI_KEY>
CJAVTWRYCDNHSM-UHFFFAOYSA-N

> <FORMULA>
C19H20F3NO2

> <MOLECULAR_WEIGHT>
351.3628

> <EXACT_MASS>
351.144613504

> <JCHEM_ACCEPTOR_COUNT>
2

> <JCHEM_AVERAGE_POLARIZABILITY>
34.83144841578906

> <JCHEM_BIOAVAILABILITY>
1

> <JCHEM_DONOR_COUNT>
1

> <JCHEM_FORMAL_CHARGE>
0

> <JCHEM_GHOSE_FILTER>
1

> <JCHEM_IUPAC>
2-({1-[3-(trifluoromethyl)phenyl]propan-2-yl}amino)ethyl benzoate

> <ALOGPS_LOGP>
4.26

> <JCHEM_LOGP>
4.919877193666667

> <ALOGPS_LOGS>
-5.44

> <JCHEM_MDDR_LIKE_RULE>
0

> <JCHEM_NUMBER_OF_RINGS>
2

> <JCHEM_PHYSIOLOGICAL_CHARGE>
1

> <JCHEM_PKA_STRONGEST_BASIC>
9.142427987044945

> <JCHEM_POLAR_SURFACE_AREA>
38.33

> <JCHEM_REFRACTIVITY>
90.5678

> <JCHEM_ROTATABLE_BOND_COUNT>
9

> <JCHEM_RULE_OF_FIVE>
1

> <ALOGPS_SOLUBILITY>
1.28e-03 g/l

> <JCHEM_TRADITIONAL_IUPAC>
benfluorex

> <JCHEM_VEBER_RULE>
1

> <DRUGBANK_ID>
DB09022

> <DRUG_GROUPS>
investigational; withdrawn

> <GENERIC_NAME>
Benfluorex

> <SYNONYMS>
Benfluorexum

> <INTERNATIONAL_BRANDS>
Axal; Lipascor; Mediaxal

> <SALTS>
Benfluorex hydrochloride

$$$$

  Mrv0541 06251410322D          

 24 25  0  0  0  0            999 V2000
    3.6019   -0.9059    0.0000 C   0  0  0  0  0  0  0  0  0  0  0  0
    5.7453    0.3315    0.0000 C   0  0  0  0  0  0  0  0  0  0  0  0
    4.3164   -1.3184    0.0000 C   0  0  0  0  0  0  0  0  0  0  0  0
    5.0309   -0.0809    0.0000 C   0  0  0  0  0  0  0  0  0  0  0  0
   10.7466   -2.5559    0.0000 C   0  0  0  0  0  0  0  0  0  0  0  0
    9.8407    0.8250    0.0000 C   0  0  0  0  0  0  0  0  0  0  0  0
   10.7466   -1.7309    0.0000 C   0  0  0  0  0  0  0  0  0  0  0  0
   10.0322   -2.9684    0.0000 C   0  0  0  0  0  0  0  0  0  0  0  0
    9.0157    0.8250    0.0000 C   0  0  0  0  0  0  0  0  0  0  0  0
   10.2532    0.1105    0.0000 C   0  0  0  0  0  0  0  0  0  0  0  0
   10.0322   -1.3184    0.0000 C   0  0  0  0  0  0  0  0  0  0  0  0
    9.3177   -2.5559    0.0000 C   0  0  0  0  0  0  0  0  0  0  0  0
    8.6032    0.1105    0.0000 C   0  0  0  0  0  0  0  0  0  0  0  0
    9.8407   -0.6039    0.0000 C   0  0  0  0  0  0  0  0  0  0  0  0
    5.7453   -1.3184    0.0000 C   0  0  0  0  0  0  0  0  0  0  0  0
    6.4598   -0.9059    0.0000 C   0  0  0  0  0  0  0  0  0  0  0  0
    9.3177   -1.7309    0.0000 C   0  0  0  0  0  0  0  0  0  0  0  0
    9.0157   -0.6039    0.0000 C   0  0  0  0  0  0  0  0  0  0  0  0
    7.8887   -0.9059    0.0000 C   0  0  0  0  0  0  0  0  0  0  0  0
    8.6032   -1.3184    0.0000 C   0  0  0  0  0  0  0  0  0  0  0  0
    5.0309   -0.9059    0.0000 N   0  0  0  0  0  0  0  0  0  0  0  0
    7.8887   -0.0809    0.0000 O   0  0  0  0  0  0  0  0  0  0  0  0
    8.1907   -2.0328    0.0000 O   0  0  0  0  0  0  0  0  0  0  0  0
    7.1743   -1.3184    0.0000 O   0  0  0  0  0  0  0  0  0  0  0  0
  3  1  1  0  0  0  0
  4  2  1  0  0  0  0
  7  5  2  0  0  0  0
  8  5  1  0  0  0  0
  9  6  2  0  0  0  0
 10  6  1  0  0  0  0
 11  7  1  0  0  0  0
 12  8  2  0  0  0  0
 13  9  1  0  0  0  0
 14 10  2  0  0  0  0
 16 15  1  0  0  0  0
 17 11  2  0  0  0  0
 17 12  1  0  0  0  0
 18 13  2  0  0  0  0
 18 14  1  0  0  0  0
 20 17  1  0  0  0  0
 20 18  1  0  0  0  0
 20 19  1  0  0  0  0
 21  3  1  0  0  0  0
 21  4  1  0  0  0  0
 21 15  1  0  0  0  0
 22 19  2  0  0  0  0
 23 20  1  0  0  0  0
 24 16  1  0  0  0  0
 24 19  1  0  0  0  0
M  END
> <DATABASE_ID>
DB09023

> <DATABASE_NAME>
drugbank

> <SMILES>
CCN(CC)CCOC(=O)C(O)(C1=CC=CC=C1)C1=CC=CC=C1

> <INCHI_IDENTIFIER>
InChI=1S/C20H25NO3/c1-3-21(4-2)15-16-24-19(22)20(23,17-11-7-5-8-12-17)18-13-9-6-10-14-18/h5-14,23H,3-4,15-16H2,1-2H3

> <INCHI_KEY>
IVQOFBKHQCTVQV-UHFFFAOYSA-N

> <FORMULA>
C20H25NO3

> <MOLECULAR_WEIGHT>
327.4174

> <EXACT_MASS>
327.183443671

> <JCHEM_ACCEPTOR_COUNT>
3

> <JCHEM_AVERAGE_POLARIZABILITY>
36.65348549215912

> <JCHEM_BIOAVAILABILITY>
1

> <JCHEM_DONOR_COUNT>
1

> <JCHEM_FORMAL_CHARGE>
0

> <JCHEM_GHOSE_FILTER>
1

> <JCHEM_IUPAC>
2-(diethylamino)ethyl 2-hydroxy-2,2-diphenylacetate

> <ALOGPS_LOGP>
3.45

> <JCHEM_LOGP>
3.4357015756666662

> <ALOGPS_LOGS>
-3.24

> <JCHEM_MDDR_LIKE_RULE>
0

> <JCHEM_NUMBER_OF_RINGS>
2

> <JCHEM_PHYSIOLOGICAL_CHARGE>
1

> <JCHEM_PKA_STRONGEST_ACIDIC>
11.053893137562184

> <JCHEM_PKA_STRONGEST_BASIC>
8.958430015210082

> <JCHEM_POLAR_SURFACE_AREA>
49.77000000000001

> <JCHEM_REFRACTIVITY>
95.7675

> <JCHEM_ROTATABLE_BOND_COUNT>
9

> <JCHEM_RULE_OF_FIVE>
1

> <ALOGPS_SOLUBILITY>
1.88e-01 g/l

> <JCHEM_TRADITIONAL_IUPAC>
benactyzine

> <JCHEM_VEBER_RULE>
0

> <DRUGBANK_ID>
DB09023

> <DRUG_GROUPS>
withdrawn

> <GENERIC_NAME>
Benactyzine

> <INTERNATIONAL_BRANDS>
Cedad; Cevanol; Deprol; Lucidil; Morcain; Nutinal; Parasan; Phebex; Phobex; Suavitil

$$$$
 
  Mrv1572009151516302D          

 17 17  0  0  0  0            999 V2000
   24.3844  -17.6218    0.0000 C   0  0  0  0  0  0  0  0  0  0  0  0
   24.3844  -18.4583    0.0000 C   0  0  0  0  0  0  0  0  0  0  0  0
   25.1373  -18.8766    0.0000 C   0  0  0  0  0  0  0  0  0  0  0  0
   25.8483  -18.4583    0.0000 C   0  0  0  0  0  0  0  0  0  0  0  0
   25.8483  -17.6218    0.0000 C   0  0  0  0  0  0  0  0  0  0  0  0
   25.1373  -17.2035    0.0000 C   0  0  0  0  0  0  0  0  0  0  0  0
   26.5595  -18.8766    0.0000 C   0  0  0  0  0  0  0  0  0  0  0  0
   27.3123  -18.4583    0.0000 O   0  0  0  0  0  0  0  0  0  0  0  0
   28.0233  -18.8766    0.0000 C   0  0  0  0  0  0  0  0  0  0  0  0
   28.7345  -18.4583    0.0000 C   0  0  0  0  0  0  0  0  0  0  0  0
   29.4873  -18.8766    0.0000 N   0  0  0  0  0  0  0  0  0  0  0  0
   30.1983  -18.4583    0.0000 C   0  0  0  0  0  0  0  0  0  0  0  0
   26.5595  -19.7131    0.0000 O   0  0  0  0  0  0  0  0  0  0  0  0
   27.3123  -19.2948    0.0000 C   0  0  0  0  0  0  0  0  0  0  0  0
   28.7345  -19.2948    0.0000 C   0  0  0  0  0  0  0  0  0  0  0  0
   29.4873  -19.7131    0.0000 C   0  0  0  0  0  0  0  0  0  0  0  0
   27.3123  -20.1314    0.0000 C   0  0  0  0  0  0  0  0  0  0  0  0
  1  2  2  0  0  0  0
  2  3  1  0  0  0  0
  3  4  2  0  0  0  0
  4  5  1  0  0  0  0
  5  6  2  0  0  0  0
  1  6  1  0  0  0  0
  4  7  1  0  0  0  0
  7  8  1  0  0  0  0
  8  9  1  0  0  0  0
  9 10  1  0  0  0  0
 10 11  1  0  0  0  0
 11 12  1  0  0  0  0
  7 13  2  0  0  0  0
  9 14  1  0  0  0  0
  9 15  1  0  0  0  0
 11 16  1  0  0  0  0
 14 17  1  0  0  0  0
M  END
> <DATABASE_ID>
DB09088

> <DATABASE_NAME>
drugbank

> <SMILES>
CCC(C)(CN(C)C)OC(=O)C1=CC=CC=C1

> <INCHI_IDENTIFIER>
InChI=1S/C14H21NO2/c1-5-14(2,11-15(3)4)17-13(16)12-9-7-6-8-10-12/h6-10H,5,11H2,1-4H3

> <INCHI_KEY>
FDMBBCOBEAVDAO-UHFFFAOYSA-N

> <FORMULA>
C14H21NO2

> <MOLECULAR_WEIGHT>
235.327

> <EXACT_MASS>
235.15722892

> <JCHEM_ACCEPTOR_COUNT>
2

> <JCHEM_ATOM_COUNT>
38

> <JCHEM_AVERAGE_POLARIZABILITY>
26.96387978154298

> <JCHEM_BIOAVAILABILITY>
1

> <JCHEM_DONOR_COUNT>
0

> <JCHEM_FORMAL_CHARGE>
0

> <JCHEM_GHOSE_FILTER>
1

> <JCHEM_IUPAC>
1-(dimethylamino)-2-methylbutan-2-yl benzoate

> <ALOGPS_LOGP>
2.73

> <JCHEM_LOGP>
3.215041390333333

> <ALOGPS_LOGS>
-2.34

> <JCHEM_MDDR_LIKE_RULE>
0

> <JCHEM_NUMBER_OF_RINGS>
1

> <JCHEM_PHYSIOLOGICAL_CHARGE>
1

> <JCHEM_PKA_STRONGEST_BASIC>
8.909710297659004

> <JCHEM_POLAR_SURFACE_AREA>
29.54

> <JCHEM_REFRACTIVITY>
69.68340000000002

> <JCHEM_ROTATABLE_BOND_COUNT>
6

> <JCHEM_RULE_OF_FIVE>
1

> <ALOGPS_SOLUBILITY>
1.06e+00 g/l

> <JCHEM_TRADITIONAL_IUPAC>
stovaine

> <JCHEM_VEBER_RULE>
1

> <DRUGBANK_ID>
DB09088

> <DRUG_GROUPS>
approved; withdrawn

> <GENERIC_NAME>
Amylocaine

> <SYNONYMS>
1-(Dimethylamino)-2-methyl-2-butanol benzoate; Amyléine; Amylocaine; Stovaine

> <PRODUCTS>
Dentition Sirop De; Rhino Mex

> <SALTS>
Amylocaine hydrochloride

$$$$
 
  Mrv1572009151517372D          

 29 32  0  0  1  0            999 V2000
   16.1182  -17.0335    0.0000 C   0  0  0  0  0  0  0  0  0  0  0  0
   16.1182  -17.8585    0.0000 C   0  0  0  0  0  0  0  0  0  0  0  0
   16.8327  -18.2710    0.0000 C   0  0  0  0  0  0  0  0  0  0  0  0
   17.5472  -17.8585    0.0000 C   0  0  0  0  0  0  0  0  0  0  0  0
   17.5472  -17.0335    0.0000 C   0  0  2  0  0  0  0  0  0  0  0  0
   16.8327  -16.6210    0.0000 C   0  0  0  0  0  0  0  0  0  0  0  0
   18.2616  -18.2710    0.0000 C   0  0  0  0  0  0  0  0  0  0  0  0
   18.9761  -17.8585    0.0000 C   0  0  0  0  0  0  0  0  0  0  0  0
   18.9761  -17.0335    0.0000 C   0  0  2  0  0  0  0  0  0  0  0  0
   18.2616  -16.6210    0.0000 C   0  0  2  0  0  0  0  0  0  0  0  0
   19.6907  -16.6210    0.0000 C   0  0  1  0  0  0  0  0  0  0  0  0
   19.6907  -15.7959    0.0000 C   0  0  2  0  0  0  0  0  0  0  0  0
   18.9761  -15.3834    0.0000 C   0  0  0  0  0  0  0  0  0  0  0  0
   18.2616  -15.7959    0.0000 C   0  0  2  0  0  0  0  0  0  0  0  0
   21.1196  -16.6210    0.0000 C   0  0  0  0  0  0  0  0  0  0  0  0
   21.1196  -15.7959    0.0000 C   0  0  0  0  0  0  0  0  0  0  0  0
   20.4051  -15.3834    0.0000 C   0  0  2  0  0  0  0  0  0  0  0  0
   15.4038  -18.2710    0.0000 O   0  0  0  0  0  0  0  0  0  0  0  0
   20.4051  -14.5584    0.0000 C   0  0  0  0  0  0  0  0  0  0  0  0
   21.1220  -14.1445    0.0000 C   0  0  0  0  0  0  0  0  0  0  0  0
   19.6930  -14.1472    0.0000 O   0  0  0  0  0  0  0  0  0  0  0  0
   21.8276  -14.5520    0.0000 S   0  0  0  0  0  0  0  0  0  0  0  0
   21.1196  -15.0534    0.0000 O   0  0  0  0  0  0  0  0  0  0  0  0
   17.5472  -15.3834    0.0000 O   0  0  0  0  0  0  0  0  0  0  0  0
   17.5472  -16.2084    0.0000 C   0  0  0  0  0  0  0  0  0  0  0  0
   18.9761  -16.2084    0.0000 H   0  0  0  0  0  0  0  0  0  0  0  0
   18.2616  -17.4460    0.0000 H   0  0  0  0  0  0  0  0  0  0  0  0
   19.6907  -17.4460    0.0000 H   0  0  0  0  0  0  0  0  0  0  0  0
   19.6907  -14.9530    0.0000 C   0  0  0  0  0  0  0  0  0  0  0  0
  1  2  1  0  0  0  0
  2  3  1  0  0  0  0
  3  4  2  0  0  0  0
  4  5  1  0  0  0  0
  5  6  1  0  0  0  0
  1  6  1  0  0  0  0
  4  7  1  0  0  0  0
  7  8  1  0  0  0  0
  8  9  1  0  0  0  0
  9 10  1  0  0  0  0
  5 10  1  0  0  0  0
  9 11  1  0  0  0  0
 11 12  1  0  0  0  0
 12 13  1  0  0  0  0
 13 14  1  0  0  0  0
 10 14  1  0  0  0  0
 11 15  1  0  0  0  0
 15 16  1  0  0  0  0
 16 17  1  0  0  0  0
 12 17  1  0  0  0  0
  2 18  2  0  0  0  0
 17 19  1  1  0  0  0
 19 20  1  0  0  0  0
 19 21  2  0  0  0  0
 20 22  1  0  0  0  0
 17 23  1  6  0  0  0
 14 24  1  1  0  0  0
  5 25  1  1  0  0  0
  9 26  1  1  0  0  0
 10 27  1  6  0  0  0
 11 28  1  6  0  0  0
 12 29  1  1  0  0  0
M  END
> <DATABASE_ID>
DB09091

> <DATABASE_NAME>
drugbank

> <SMILES>
[H][C@@]12CC[C@](O)(C(=O)CS)[C@@]1(C)C[C@H](O)[C@@]1([H])[C@@]2([H])CCC2=CC(=O)CC[C@]12C

> <INCHI_IDENTIFIER>
InChI=1S/C21H30O4S/c1-19-7-5-13(22)9-12(19)3-4-14-15-6-8-21(25,17(24)11-26)20(15,2)10-16(23)18(14)19/h9,14-16,18,23,25-26H,3-8,10-11H2,1-2H3/t14-,15-,16-,18+,19-,20-,21-/m0/s1

> <INCHI_KEY>
YWDBSCORAARPPF-VWUMJDOOSA-N

> <FORMULA>
C21H30O4S

> <MOLECULAR_WEIGHT>
378.53

> <EXACT_MASS>
378.18648062

> <JCHEM_ACCEPTOR_COUNT>
4

> <JCHEM_ATOM_COUNT>
56

> <JCHEM_AVERAGE_POLARIZABILITY>
41.95708799637652

> <JCHEM_BIOAVAILABILITY>
1

> <JCHEM_DONOR_COUNT>
3

> <JCHEM_FORMAL_CHARGE>
0

> <JCHEM_GHOSE_FILTER>
1

> <JCHEM_IUPAC>
(1S,2R,10S,11S,14R,15S,17S)-14,17-dihydroxy-2,15-dimethyl-14-(2-sulfanylacetyl)tetracyclo[8.7.0.0²,⁷.0¹¹,¹⁵]heptadec-6-en-5-one

> <ALOGPS_LOGP>
2.42

> <JCHEM_LOGP>
2.3189799020000006

> <ALOGPS_LOGS>
-3.95

> <JCHEM_MDDR_LIKE_RULE>
0

> <JCHEM_NUMBER_OF_RINGS>
4

> <JCHEM_PHYSIOLOGICAL_CHARGE>
0

> <JCHEM_PKA>
12.71952808862137

> <JCHEM_PKA_STRONGEST_ACIDIC>
9.570465688527815

> <JCHEM_PKA_STRONGEST_BASIC>
-2.8468636542126173

> <JCHEM_POLAR_SURFACE_AREA>
74.60000000000001

> <JCHEM_REFRACTIVITY>
103.52699999999999

> <JCHEM_ROTATABLE_BOND_COUNT>
2

> <JCHEM_RULE_OF_FIVE>
1

> <ALOGPS_SOLUBILITY>
4.28e-02 g/l

> <JCHEM_TRADITIONAL_IUPAC>
tixocortol

> <JCHEM_VEBER_RULE>
0

> <DRUGBANK_ID>
DB09091

> <DRUG_GROUPS>
approved; withdrawn

> <GENERIC_NAME>
Tixocortol

> <SYNONYMS>
Tixocortol

> <PRODUCTS>
Rectovalone 250mg/100ml; T.R.U.E. Test Thin-Layer Rapid Use Patch Test

> <SALTS>
Tixocortol pivalate

$$$$
9913
  Mrv1572009161512142D          

 22 23  0  0  1  0            999 V2000
    7.2204   -0.4333    0.0000 O   0  0  0  0  0  0  0  0  0  0  0  0
    4.1106    0.2124    0.0000 O   0  0  0  0  0  0  0  0  0  0  0  0
    2.6817   -2.2625    0.0000 O   0  0  0  0  0  0  0  0  0  0  0  0
    9.0529    2.8736    0.0000 O   0  0  0  0  0  0  0  0  0  0  0  0
    5.6058   -0.7735    0.0000 N   0  0  0  0  0  0  0  0  0  0  0  0
    7.7330    1.1351    0.0000 N   0  0  0  0  0  0  0  0  0  0  0  0
    4.1106   -2.2625    0.0000 N   0  0  0  0  0  0  0  0  0  0  0  0
    3.3961   -1.0250    0.0000 N   0  0  0  0  0  0  0  0  0  0  0  0
    5.6058   -2.1014    0.0000 N   0  0  0  0  0  0  0  0  0  0  0  0
    6.6694    0.1807    0.0000 C   0  0  0  0  0  0  0  0  0  0  0  0
    5.8621    0.0106    0.0000 C   0  0  0  0  0  0  0  0  0  0  0  0
    6.9257    0.9649    0.0000 C   0  0  0  0  0  0  0  0  0  0  0  0
    4.8252   -1.0250    0.0000 C   0  0  0  0  0  0  0  0  0  0  0  0
    4.8252   -1.8500    0.0000 C   0  0  0  0  0  0  0  0  0  0  0  0
    6.0873   -1.4375    0.0000 C   0  0  0  0  0  0  0  0  0  0  0  0
    7.9893    1.9193    0.0000 C   0  0  0  0  0  0  0  0  0  0  0  0
    4.1106   -0.6125    0.0000 C   0  0  0  0  0  0  0  0  0  0  0  0
    3.3961   -1.8500    0.0000 C   0  0  0  0  0  0  0  0  0  0  0  0
    8.2840    0.5209    0.0000 C   0  0  0  0  0  0  0  0  0  0  0  0
    8.7966    2.0894    0.0000 C   0  0  0  0  0  0  0  0  0  0  0  0
    4.1106   -3.0876    0.0000 C   0  0  0  0  0  0  0  0  0  0  0  0
    2.6817   -0.6125    0.0000 C   0  0  0  0  0  0  0  0  0  0  0  0
  1 10  1  0  0  0  0
  2 17  2  0  0  0  0
  3 18  2  0  0  0  0
  4 20  1  0  0  0  0
  5 11  1  0  0  0  0
  5 13  1  0  0  0  0
  5 15  1  0  0  0  0
  6 12  1  0  0  0  0
  6 16  1  0  0  0  0
  6 19  1  0  0  0  0
  7 14  1  0  0  0  0
  7 18  1  0  0  0  0
  7 21  1  0  0  0  0
  8 17  1  0  0  0  0
  8 18  1  0  0  0  0
  8 22  1  0  0  0  0
  9 14  1  0  0  0  0
  9 15  2  0  0  0  0
 10 11  1  0  0  0  0
 10 12  1  0  0  0  0
 13 14  2  0  0  0  0
 13 17  1  0  0  0  0
 16 20  1  0  0  0  0
M  END
> <DATABASE_ID>
DB09092

> <DATABASE_NAME>
drugbank

> <SMILES>
CN(CCO)CC(O)CN1C=NC2=C1C(=O)N(C)C(=O)N2C

> <INCHI_IDENTIFIER>
InChI=1S/C13H21N5O4/c1-15(4-5-19)6-9(20)7-18-8-14-11-10(18)12(21)17(3)13(22)16(11)2/h8-9,19-20H,4-7H2,1-3H3

> <INCHI_KEY>
DSFGXPJYDCSWTA-UHFFFAOYSA-N

> <FORMULA>
C13H21N5O4

> <MOLECULAR_WEIGHT>
311.342

> <EXACT_MASS>
311.159354176

> <JCHEM_ACCEPTOR_COUNT>
6

> <JCHEM_ATOM_COUNT>
43

> <JCHEM_AVERAGE_POLARIZABILITY>
31.945285831907213

> <JCHEM_BIOAVAILABILITY>
1

> <JCHEM_DONOR_COUNT>
2

> <JCHEM_FORMAL_CHARGE>
0

> <JCHEM_GHOSE_FILTER>
0

> <JCHEM_IUPAC>
7-{2-hydroxy-3-[(2-hydroxyethyl)(methyl)amino]propyl}-1,3-dimethyl-2,3,6,7-tetrahydro-1H-purine-2,6-dione

> <ALOGPS_LOGP>
-1.01

> <JCHEM_LOGP>
-1.8474380233333336

> <ALOGPS_LOGS>
-1.25

> <JCHEM_MDDR_LIKE_RULE>
0

> <JCHEM_NUMBER_OF_RINGS>
2

> <JCHEM_PHYSIOLOGICAL_CHARGE>
1

> <JCHEM_PKA>
15.621442496874796

> <JCHEM_PKA_STRONGEST_ACIDIC>
14.38120970062192

> <JCHEM_PKA_STRONGEST_BASIC>
8.857557227917013

> <JCHEM_POLAR_SURFACE_AREA>
102.13999999999999

> <JCHEM_REFRACTIVITY>
80.1051

> <JCHEM_ROTATABLE_BOND_COUNT>
6

> <JCHEM_RULE_OF_FIVE>
1

> <ALOGPS_SOLUBILITY>
1.73e+01 g/l

> <JCHEM_TRADITIONAL_IUPAC>
xanthinol

> <JCHEM_VEBER_RULE>
0

> <DRUGBANK_ID>
DB09092

> <DRUG_GROUPS>
approved; withdrawn

> <GENERIC_NAME>
Xanthinol

> <SYNONYMS>
Xantinol

> <PRODUCTS>
Complamin Tab 150mg; Complamin Tab 300mg

> <SALTS>
Xanthinol nicotinate

$$$$

  Mrv1909 11291917582D          

 30 33  0  0  0  0            999 V2000
   -0.4012   -0.1718    0.0000 C   0  0  1  0  0  0  0  0  0  0  0  0
    0.2974   -0.5684    0.0000 C   0  0  2  0  0  0  0  0  0  0  0  0
   -1.0968   -0.5684    0.0000 C   0  0  2  0  0  0  0  0  0  0  0  0
   -0.4012    0.6155    0.0000 C   0  0  2  0  0  0  0  0  0  0  0  0
   -0.4100   -1.0390    0.0000 F   0  0  0  0  0  0  0  0  0  0  0  0
    0.9900   -0.1718    0.0000 C   0  0  1  0  0  0  0  0  0  0  0  0
    0.2974   -1.3616    0.0000 C   0  0  0  0  0  0  0  0  0  0  0  0
   -1.0968   -1.3616    0.0000 C   0  0  0  0  0  0  0  0  0  0  0  0
   -1.8043   -0.1125    0.0000 C   0  0  0  0  0  0  0  0  0  0  0  0
   -1.0998    0.3964    0.0000 C   0  0  0  0  0  0  0  0  0  0  0  0
    0.3180    1.0565    0.0000 C   0  0  0  0  0  0  0  0  0  0  0  0
   -1.1560    1.1159    0.0000 O   0  0  0  0  0  0  0  0  0  0  0  0
    0.9900    0.6533    0.0000 C   0  0  2  0  0  0  0  0  0  0  0  0
    1.7748   -0.4267    0.0000 C   0  0  0  0  0  0  0  0  0  0  0  0
   -0.4100   -1.7909    0.0000 C   0  0  1  0  0  0  0  0  0  0  0  0
   -1.8043   -1.7909    0.0000 C   0  0  0  0  0  0  0  0  0  0  0  0
   -2.4910   -0.5684    0.0000 C   0  0  0  0  0  0  0  0  0  0  0  0
    1.7748    0.9082    0.0000 C   0  0  2  0  0  0  0  0  0  0  0  0
    0.9900    1.6309    0.0000 C   0  0  0  0  0  0  0  0  0  0  0  0
    2.2597    0.2407    0.0000 C   0  0  2  0  0  0  0  0  0  0  0  0
   -0.4100   -2.6494    0.0000 F   0  0  0  0  0  0  0  0  0  0  0  0
   -2.4910   -1.3616    0.0000 C   0  0  0  0  0  0  0  0  0  0  0  0
    2.0298    1.6931    0.0000 C   0  0  0  0  0  0  0  0  0  0  0  0
    3.0050    0.2371    0.0000 C   0  0  0  0  0  0  0  0  0  0  0  0
   -3.0918   -1.7257    0.0000 O   0  0  0  0  0  0  0  0  0  0  0  0
    2.8368    1.8646    0.0000 C   0  0  0  0  0  0  0  0  0  0  0  0
    1.4776    2.3063    0.0000 O   0  0  0  0  0  0  0  0  0  0  0  0
    3.0918    2.6494    0.0000 O   0  0  0  0  0  0  0  0  0  0  0  0
    0.2974    0.2567    0.0000 H   0  0  0  0  0  0  0  0  0  0  0  0
    0.9900   -0.9969    0.0000 H   0  0  0  0  0  0  0  0  0  0  0  0
  1  2  1  0  0  0  0
  1  3  1  0  0  0  0
  1  4  1  0  0  0  0
  1  5  1  6  0  0  0
  2  6  1  0  0  0  0
  2  7  1  0  0  0  0
  3  8  1  0  0  0  0
  3  9  1  0  0  0  0
  3 10  1  1  0  0  0
  4 11  1  0  0  0  0
  4 12  1  1  0  0  0
  6 13  1  0  0  0  0
  6 14  1  0  0  0  0
  7 15  1  0  0  0  0
  8 16  2  0  0  0  0
  9 17  2  0  0  0  0
 13 18  1  0  0  0  0
 13 19  1  1  0  0  0
 14 20  1  0  0  0  0
 15 21  1  6  0  0  0
 16 22  1  0  0  0  0
 18 23  1  1  0  0  0
 20 24  1  6  0  0  0
 22 25  2  0  0  0  0
 23 26  1  0  0  0  0
 23 27  2  0  0  0  0
 26 28  1  0  0  0  0
  8 15  1  0  0  0  0
 11 13  1  0  0  0  0
 17 22  1  0  0  0  0
 18 20  1  0  0  0  0
  2 29  1  1  0  0  0
  6 30  1  6  0  0  0
M  END
> <DATABASE_ID>
DB09095

> <DATABASE_NAME>
drugbank

> <SMILES>
[H][C@@]12C[C@@H](C)[C@H](C(=O)CO)[C@@]1(C)C[C@H](O)[C@@]1(F)[C@@]2([H])C[C@H](F)C2=CC(=O)C=C[C@]12C

> <INCHI_IDENTIFIER>
InChI=1S/C22H28F2O4/c1-11-6-13-14-8-16(23)15-7-12(26)4-5-21(15,3)22(14,24)18(28)9-20(13,2)19(11)17(27)10-25/h4-5,7,11,13-14,16,18-19,25,28H,6,8-10H2,1-3H3/t11-,13+,14+,16+,18+,19-,20+,21+,22+/m1/s1

> <INCHI_KEY>
OGPWIDANBSLJPC-RFPWEZLHSA-N

> <FORMULA>
C22H28F2O4

> <MOLECULAR_WEIGHT>
394.459

> <EXACT_MASS>
394.195565708

> <JCHEM_ACCEPTOR_COUNT>
4

> <JCHEM_ATOM_COUNT>
56

> <JCHEM_AVERAGE_POLARIZABILITY>
40.200831929970484

> <JCHEM_BIOAVAILABILITY>
1

> <JCHEM_DONOR_COUNT>
2

> <JCHEM_FORMAL_CHARGE>
0

> <JCHEM_GHOSE_FILTER>
1

> <JCHEM_IUPAC>
(1S,2R,3aS,3bS,5S,9aS,9bR,10S,11aS)-5,9b-difluoro-10-hydroxy-1-(2-hydroxyacetyl)-2,9a,11a-trimethyl-1H,2H,3H,3aH,3bH,4H,5H,7H,9aH,9bH,10H,11H,11aH-cyclopenta[a]phenanthren-7-one

> <ALOGPS_LOGP>
2.22

> <JCHEM_LOGP>
2.011321779666665

> <ALOGPS_LOGS>
-3.95

> <JCHEM_MDDR_LIKE_RULE>
0

> <JCHEM_NUMBER_OF_RINGS>
4

> <JCHEM_PHYSIOLOGICAL_CHARGE>
0

> <JCHEM_PKA>
14.009788198789298

> <JCHEM_PKA_STRONGEST_ACIDIC>
13.418263447906684

> <JCHEM_PKA_STRONGEST_BASIC>
-3.295502644315541

> <JCHEM_POLAR_SURFACE_AREA>
74.6

> <JCHEM_REFRACTIVITY>
100.99329999999998

> <JCHEM_ROTATABLE_BOND_COUNT>
2

> <JCHEM_RULE_OF_FIVE>
1

> <ALOGPS_SOLUBILITY>
4.46e-02 g/l

> <JCHEM_TRADITIONAL_IUPAC>
L-ornithinium(1+) (+)-aspartate

> <JCHEM_VEBER_RULE>
0

> <DRUGBANK_ID>
DB09095

> <DRUG_GROUPS>
approved; investigational; withdrawn

> <GENERIC_NAME>
Difluocortolone

> <SYNONYMS>
Diflucortolona; Diflucortolone; Diflucortolonum

> <PRODUCTS>
Nerisalic Oily Cream; Nerisone Cream; Nerisone Oily Cream; Nerisone Ointment

> <SALTS>
Difluocortolone valerate

$$$$
PC(16:0/16:0)
  Mrv1652309121719182D          

 51 50  0  0  1  0            999 V2000
   17.2908  -10.1901    0.0000 C   0  0  0  0  0  0  0  0  0  0  0  0
   16.5855  -10.5973    0.0000 C   0  0  1  0  0  0  0  0  0  0  0  0
   15.8804  -10.1901    0.0000 C   0  0  0  0  0  0  0  0  0  0  0  0
   17.9959  -10.5973    0.0000 O   0  0  0  0  0  0  0  0  0  0  0  0
   15.1752  -10.5973    0.0000 O   0  0  0  0  0  0  0  0  0  0  0  0
   16.5855  -11.4116    0.0000 O   0  0  0  0  0  0  0  0  0  0  0  0
   18.7012  -10.1901    0.0000 P   0  0  0  0  0  0  0  0  0  0  0  0
   19.1084  -10.8954    0.0000 O   0  5  0  0  0  0  0  0  0  0  0  0
   18.2941   -9.4849    0.0000 O   0  0  0  0  0  0  0  0  0  0  0  0
   19.4063   -9.7829    0.0000 O   0  0  0  0  0  0  0  0  0  0  0  0
   20.1115  -10.1901    0.0000 C   0  0  0  0  0  0  0  0  0  0  0  0
   20.8167   -9.7829    0.0000 C   0  0  0  0  0  0  0  0  0  0  0  0
   21.5219  -10.1901    0.0000 N   0  3  0  0  0  0  0  0  0  0  0  0
   21.1147  -10.8954    0.0000 C   0  0  0  0  0  0  0  0  0  0  0  0
   22.1746   -9.3375    0.0000 C   0  0  0  0  0  0  0  0  0  0  0  0
   22.2272  -10.5973    0.0000 C   0  0  0  0  0  0  0  0  0  0  0  0
   17.3747  -11.1477    0.0000 H   0  0  0  0  0  0  0  0  0  0  0  0
   14.4607  -10.1849    0.0000 C   0  0  0  0  0  0  0  0  0  0  0  0
   14.4607   -9.4134    0.0000 O   0  0  0  0  0  0  0  0  0  0  0  0
   13.7465  -10.5980    0.0000 C   0  0  0  0  0  0  0  0  0  0  0  0
   13.0324  -10.1849    0.0000 C   0  0  0  0  0  0  0  0  0  0  0  0
   12.3182  -10.5980    0.0000 C   0  0  0  0  0  0  0  0  0  0  0  0
   11.6041  -10.1849    0.0000 C   0  0  0  0  0  0  0  0  0  0  0  0
   10.8899  -10.5980    0.0000 C   0  0  0  0  0  0  0  0  0  0  0  0
   10.1758  -10.1849    0.0000 C   0  0  0  0  0  0  0  0  0  0  0  0
    9.4617  -10.5980    0.0000 C   0  0  0  0  0  0  0  0  0  0  0  0
    8.7476  -10.1849    0.0000 C   0  0  0  0  0  0  0  0  0  0  0  0
    8.0334  -10.5980    0.0000 C   0  0  0  0  0  0  0  0  0  0  0  0
    7.3193  -10.1849    0.0000 C   0  0  0  0  0  0  0  0  0  0  0  0
    6.6051  -10.5980    0.0000 C   0  0  0  0  0  0  0  0  0  0  0  0
    5.8910  -10.1849    0.0000 C   0  0  0  0  0  0  0  0  0  0  0  0
    5.1768  -10.5980    0.0000 C   0  0  0  0  0  0  0  0  0  0  0  0
    4.4627  -10.1849    0.0000 C   0  0  0  0  0  0  0  0  0  0  0  0
    3.7486  -10.5980    0.0000 C   0  0  0  0  0  0  0  0  0  0  0  0
   15.8711  -11.8240    0.0000 C   0  0  0  0  0  0  0  0  0  0  0  0
   15.8711  -12.5954    0.0000 O   0  0  0  0  0  0  0  0  0  0  0  0
   15.1570  -11.4109    0.0000 C   0  0  0  0  0  0  0  0  0  0  0  0
   14.4428  -11.8240    0.0000 C   0  0  0  0  0  0  0  0  0  0  0  0
   13.7287  -11.4109    0.0000 C   0  0  0  0  0  0  0  0  0  0  0  0
   13.0145  -11.8240    0.0000 C   0  0  0  0  0  0  0  0  0  0  0  0
   12.3004  -11.4109    0.0000 C   0  0  0  0  0  0  0  0  0  0  0  0
   11.5863  -11.8240    0.0000 C   0  0  0  0  0  0  0  0  0  0  0  0
   10.8721  -11.4109    0.0000 C   0  0  0  0  0  0  0  0  0  0  0  0
   10.1580  -11.8240    0.0000 C   0  0  0  0  0  0  0  0  0  0  0  0
    9.4439  -11.4109    0.0000 C   0  0  0  0  0  0  0  0  0  0  0  0
    8.7297  -11.8240    0.0000 C   0  0  0  0  0  0  0  0  0  0  0  0
    8.0156  -11.4109    0.0000 C   0  0  0  0  0  0  0  0  0  0  0  0
    7.3014  -11.8240    0.0000 C   0  0  0  0  0  0  0  0  0  0  0  0
    6.5873  -11.4109    0.0000 C   0  0  0  0  0  0  0  0  0  0  0  0
    5.8731  -11.8240    0.0000 C   0  0  0  0  0  0  0  0  0  0  0  0
    5.1590  -11.4109    0.0000 C   0  0  0  0  0  0  0  0  0  0  0  0
  1  4  1  0  0  0  0
  2  1  1  0  0  0  0
  2  6  1  0  0  0  0
  2 17  1  1  0  0  0
  3  2  1  0  0  0  0
  3  5  1  0  0  0  0
  4  7  1  0  0  0  0
  5 18  1  0  0  0  0
  6 35  1  0  0  0  0
  7  8  1  0  0  0  0
  7  9  2  0  0  0  0
  7 10  1  0  0  0  0
 10 11  1  0  0  0  0
 11 12  1  0  0  0  0
 12 13  1  0  0  0  0
 13 14  1  0  0  0  0
 13 15  1  0  0  0  0
 13 16  1  0  0  0  0
 18 19  2  0  0  0  0
 18 20  1  0  0  0  0
 20 21  1  0  0  0  0
 21 22  1  0  0  0  0
 22 23  1  0  0  0  0
 23 24  1  0  0  0  0
 24 25  1  0  0  0  0
 25 26  1  0  0  0  0
 26 27  1  0  0  0  0
 27 28  1  0  0  0  0
 28 29  1  0  0  0  0
 29 30  1  0  0  0  0
 30 31  1  0  0  0  0
 31 32  1  0  0  0  0
 32 33  1  0  0  0  0
 33 34  1  0  0  0  0
 35 36  2  0  0  0  0
 35 37  1  0  0  0  0
 37 38  1  0  0  0  0
 38 39  1  0  0  0  0
 39 40  1  0  0  0  0
 40 41  1  0  0  0  0
 41 42  1  0  0  0  0
 42 43  1  0  0  0  0
 43 44  1  0  0  0  0
 44 45  1  0  0  0  0
 45 46  1  0  0  0  0
 46 47  1  0  0  0  0
 47 48  1  0  0  0  0
 48 49  1  0  0  0  0
 49 50  1  0  0  0  0
 50 51  1  0  0  0  0
M  CHG  2   8  -1  13   1
M  END
> <DATABASE_ID>
DB09114

> <DATABASE_NAME>
drugbank

> <SMILES>
[H][C@@](COC(=O)CCCCCCCCCCCCCCC)(COP([O-])(=O)OCC[N+](C)(C)C)OC(=O)CCCCCCCCCCCCCCC

> <INCHI_IDENTIFIER>
InChI=1S/C40H80NO8P/c1-6-8-10-12-14-16-18-20-22-24-26-28-30-32-39(42)46-36-38(37-48-50(44,45)47-35-34-41(3,4)5)49-40(43)33-31-29-27-25-23-21-19-17-15-13-11-9-7-2/h38H,6-37H2,1-5H3/t38-/m1/s1

> <INCHI_KEY>
KILNVBDSWZSGLL-KXQOOQHDSA-N

> <FORMULA>
C40H80NO8P

> <MOLECULAR_WEIGHT>
734.0389

> <EXACT_MASS>
733.562155053

> <JCHEM_ACCEPTOR_COUNT>
4

> <JCHEM_ATOM_COUNT>
130

> <JCHEM_AVERAGE_POLARIZABILITY>
91.99893286015808

> <JCHEM_BIOAVAILABILITY>
0

> <JCHEM_DONOR_COUNT>
0

> <JCHEM_FORMAL_CHARGE>
0

> <JCHEM_GHOSE_FILTER>
0

> <JCHEM_IUPAC>
(2-{[(2R)-2,3-bis(hexadecanoyloxy)propyl phosphono]oxy}ethyl)trimethylazanium

> <ALOGPS_LOGP>
5.29

> <JCHEM_LOGP>
8.11379637919492

> <ALOGPS_LOGS>
-7.52

> <JCHEM_MDDR_LIKE_RULE>
0

> <JCHEM_NUMBER_OF_RINGS>
0

> <JCHEM_PHYSIOLOGICAL_CHARGE>
0

> <JCHEM_PKA_STRONGEST_ACIDIC>
1.8550572064469137

> <JCHEM_PKA_STRONGEST_BASIC>
-6.744159309169687

> <JCHEM_POLAR_SURFACE_AREA>
111.19

> <JCHEM_REFRACTIVITY>
215.8651

> <JCHEM_ROTATABLE_BOND_COUNT>
40

> <JCHEM_RULE_OF_FIVE>
0

> <ALOGPS_SOLUBILITY>
2.40e-05 g/l

> <JCHEM_TRADITIONAL_IUPAC>
(2-{[(2R)-2,3-bis(hexadecanoyloxy)propyl phosphono]oxy}ethyl)trimethylazanium

> <JCHEM_VEBER_RULE>
0

> <DRUGBANK_ID>
DB09114

> <DRUG_GROUPS>
approved; investigational; withdrawn

> <GENERIC_NAME>
Colfosceril palmitate

> <SYNONYMS>
Palmitato de colfoscerilo

> <PRODUCTS>
Exosurf Neonatal; Surfaxin

$$$$

  Mrv1572004061616032D          

  4  2  0  0  0  0            999 V2000
    0.0295    0.3904    0.0000 Ca  0  2  0  0  0  0  0  0  0  0  0  0
    0.0000   -0.3903    0.0000 C   0  0  0  0  0  0  0  0  0  0  0  0
    0.8250   -0.3903    0.0000 N   0  5  0  0  0  0  0  0  0  0  0  0
   -0.8250   -0.3903    0.0000 N   0  5  0  0  0  0  0  0  0  0  0  0
  2  3  2  0  0  0  0
  2  4  2  0  0  0  0
M  CHG  3   1   2   3  -1   4  -1
M  END
> <DATABASE_ID>
DB09116

> <DATABASE_NAME>
drugbank

> <SMILES>
[Ca++].[N-]=C=[N-]

> <INCHI_IDENTIFIER>
InChI=1S/CN2.Ca/c2-1-3;/q-2;+2

> <INCHI_KEY>
MYFXBBAEXORJNB-UHFFFAOYSA-N

> <FORMULA>
CCaN2

> <MOLECULAR_WEIGHT>
80.103

> <EXACT_MASS>
79.9687389

> <JCHEM_ACCEPTOR_COUNT>
2

> <JCHEM_ATOM_COUNT>
4

> <JCHEM_AVERAGE_POLARIZABILITY>
2.906726523512437

> <JCHEM_BIOAVAILABILITY>
1

> <JCHEM_DONOR_COUNT>
0

> <JCHEM_FORMAL_CHARGE>
0

> <JCHEM_GHOSE_FILTER>
0

> <JCHEM_IUPAC>
calcium (azanidylenemethylidene)azanide

> <ALOGPS_LOGP>
0.04

> <JCHEM_LOGP>
-0.25363408266666665

> <ALOGPS_LOGS>
-1.19

> <JCHEM_MDDR_LIKE_RULE>
0

> <JCHEM_NUMBER_OF_RINGS>
0

> <JCHEM_PHYSIOLOGICAL_CHARGE>
0

> <JCHEM_PKA_STRONGEST_BASIC>
3.557269819007672

> <JCHEM_POLAR_SURFACE_AREA>
34.14

> <JCHEM_REFRACTIVITY>
6.3844

> <JCHEM_ROTATABLE_BOND_COUNT>
0

> <JCHEM_RULE_OF_FIVE>
1

> <ALOGPS_SOLUBILITY>
8.71e+00 g/l

> <JCHEM_TRADITIONAL_IUPAC>
calcium (azanidylenemethylidene)azanide

> <JCHEM_VEBER_RULE>
1

> <DRUGBANK_ID>
DB09116

> <DRUG_GROUPS>
approved; withdrawn

> <GENERIC_NAME>
Calcium carbimide

> <SYNONYMS>
Calcium carbimide; calcium cyanamide; carbimida calcica; carbimide calcique; Cyanamide calcique; Cyanamide, calcium salt (1:1); Lime nitrogen; Lime-nitrogen; methanediimine, calcium salt (1:1); Nitrogen lime

> <PRODUCTS>
Temposil Tab 50mg

> <SALTS>
Citrated calcium carbimide

$$$$

  Mrv1572009221517492D          

 13 13  0  0  0  0            999 V2000
    2.1454    0.8216    0.0000 Au  0  0  0  0  0  0  0  0  0  0  0  0
    1.4331    1.2379    0.0000 S   0  0  0  0  0  0  0  0  0  0  0  0
    0.0042    1.2379    0.0000 O   0  0  0  0  0  0  0  0  0  0  0  0
    1.4331   -0.4140    0.0000 O   0  0  0  0  0  0  0  0  0  0  0  0
    0.0042   -1.2379    0.0000 O   0  0  0  0  0  0  0  0  0  0  0  0
   -1.4288   -0.4140    0.0000 O   0  0  0  0  0  0  0  0  0  0  0  0
   -2.1454    0.8259    0.0000 O   0  0  0  0  0  0  0  0  0  0  0  0
    0.7165   -0.0021    0.0000 C   0  0  2  0  0  0  0  0  0  0  0  0
    0.0042   -0.4140    0.0000 C   0  0  2  0  0  0  0  0  0  0  0  0
    0.7165    0.8216    0.0000 C   0  0  1  0  0  0  0  0  0  0  0  0
   -0.7123   -0.0021    0.0000 C   0  0  1  0  0  0  0  0  0  0  0  0
   -0.7123    0.8216    0.0000 C   0  0  1  0  0  0  0  0  0  0  0  0
   -1.4288    1.2379    0.0000 C   0  0  0  0  0  0  0  0  0  0  0  0
  1  2  1  0  0  0  0
 10  2  1  6  0  0  0
  3 10  1  0  0  0  0
  3 12  1  0  0  0  0
  8  4  1  6  0  0  0
  9  5  1  1  0  0  0
 11  6  1  6  0  0  0
  7 13  1  0  0  0  0
  8  9  1  0  0  0  0
  8 10  1  0  0  0  0
  9 11  1  0  0  0  0
 11 12  1  0  0  0  0
 12 13  1  1  0  0  0
M  END
> <DATABASE_ID>
DB09121

> <DATABASE_NAME>
drugbank

> <SMILES>
OC[C@H]1O[C@H](S[Au])[C@H](O)[C@@H](O)[C@@H]1O

> <INCHI_IDENTIFIER>
InChI=1S/C6H12O5S.Au/c7-1-2-3(8)4(9)5(10)6(12)11-2;/h2-10,12H,1H2;/q;+1/p-1/t2-,3-,4+,5-,6-;/m1./s1

> <INCHI_KEY>
XHVAWZZCDCWGBK-WYRLRVFGSA-M

> <FORMULA>
C6H11AuO5S

> <MOLECULAR_WEIGHT>
392.18

> <EXACT_MASS>
391.999289

> <JCHEM_ACCEPTOR_COUNT>
5

> <JCHEM_ATOM_COUNT>
24

> <JCHEM_AVERAGE_POLARIZABILITY>
19.879881240826403

> <JCHEM_BIOAVAILABILITY>
1

> <JCHEM_DONOR_COUNT>
4

> <JCHEM_FORMAL_CHARGE>
0

> <JCHEM_GHOSE_FILTER>
0

> <JCHEM_IUPAC>
{[(2R,3R,4S,5S,6R)-3,4,5-trihydroxy-6-(hydroxymethyl)oxan-2-yl]sulfanyl}gold

> <ALOGPS_LOGP>
-1.81

> <JCHEM_LOGP>
-2.2418000000000005

> <ALOGPS_LOGS>
-0.61

> <JCHEM_MDDR_LIKE_RULE>
0

> <JCHEM_NUMBER_OF_RINGS>
1

> <JCHEM_PHYSIOLOGICAL_CHARGE>
0

> <JCHEM_PKA>
13.395515728038873

> <JCHEM_PKA_STRONGEST_ACIDIC>
12.513949319837462

> <JCHEM_PKA_STRONGEST_BASIC>
-2.9797186489307927

> <JCHEM_POLAR_SURFACE_AREA>
90.15

> <JCHEM_REFRACTIVITY>
41.2457

> <JCHEM_ROTATABLE_BOND_COUNT>
2

> <JCHEM_RULE_OF_FIVE>
1

> <ALOGPS_SOLUBILITY>
9.64e+01 g/l

> <JCHEM_TRADITIONAL_IUPAC>
aurothioglucose

> <JCHEM_VEBER_RULE>
0

> <DRUGBANK_ID>
DB09121

> <DRUG_GROUPS>
approved; withdrawn

> <GENERIC_NAME>
Aurothioglucose

> <SYNONYMS>
Auromyose; Aurothioglucose; Gold thioglucose

> <PRODUCTS>
Solganal Inj 50mg/ml

> <INTERNATIONAL_BRANDS>
Brenol; Oronol; Romosol; Solganal; Solganal B

$$$$

  Mrv1652309031704402D          

 28 31  0  0  0  0            999 V2000
    1.4260    1.6594    0.0000 C   0  0  0  0  0  0  0  0  0  0  0  0
    1.4260    0.8343    0.0000 C   0  0  2  0  0  0  0  0  0  0  0  0
    1.4260    0.0010    0.0000 C   0  0  2  0  0  0  0  0  0  0  0  0
    2.1385    1.2499    0.0000 C   0  0  2  0  0  0  0  0  0  0  0  0
    0.7135    1.2499    0.0000 C   0  0  0  0  0  0  0  0  0  0  0  0
    0.7135   -0.4146    0.0000 C   0  0  1  0  0  0  0  0  0  0  0  0
    2.8510    0.0010    0.0000 C   0  0  0  0  0  0  0  0  0  0  0  0
    2.1385    2.0750    0.0000 C   0  0  0  0  0  0  0  0  0  0  0  0
    2.8530    1.6614    0.0000 C   0  0  0  0  0  0  0  0  0  0  0  0
    2.8510    0.8343    0.0000 C   0  0  0  0  0  0  0  0  0  0  0  0
    0.0010    0.8343    0.0000 C   0  0  0  0  0  0  0  0  0  0  0  0
    0.0010    0.0010    0.0000 C   0  0  2  0  0  0  0  0  0  0  0  0
    0.7135   -1.2458    0.0000 C   0  0  0  0  0  0  0  0  0  0  0  0
    2.8530    2.4865    0.0000 C   0  0  0  0  0  0  0  0  0  0  0  0
    1.4240    2.4865    0.0000 O   0  0  0  0  0  0  0  0  0  0  0  0
   -0.7114   -0.4146    0.0000 C   0  0  2  0  0  0  0  0  0  0  0  0
    0.0010   -1.6614    0.0000 C   0  0  0  0  0  0  0  0  0  0  0  0
   -0.7114    0.4104    0.0000 C   0  0  0  0  0  0  0  0  0  0  0  0
   -0.7114   -1.2458    0.0000 C   0  0  0  0  0  0  0  0  0  0  0  0
   -1.4261    0.0010    0.0000 C   0  0  0  0  0  0  0  0  0  0  0  0
    0.0010   -2.4865    0.0000 C   0  0  0  0  0  0  0  0  0  0  0  0
   -1.4261   -1.6614    0.0000 C   0  0  0  0  0  0  0  0  0  0  0  0
   -2.1385   -0.4146    0.0000 C   0  0  0  0  0  0  0  0  0  0  0  0
   -2.1385   -1.2458    0.0000 C   0  0  0  0  0  0  0  0  0  0  0  0
   -2.8530   -1.6573    0.0000 O   0  0  0  0  0  0  0  0  0  0  0  0
    0.7135    0.4104    0.0000 H   0  0  0  0  0  0  0  0  0  0  0  0
    0.0010   -0.8240    0.0000 H   0  0  0  0  0  0  0  0  0  0  0  0
    1.4260   -0.8240    0.0000 H   0  0  0  0  0  0  0  0  0  0  0  0
  2  1  1  1  0  0  0
  3  2  1  0  0  0  0
  2  4  1  0  0  0  0
  2  5  1  0  0  0  0
  6  3  1  0  0  0  0
  3  7  1  0  0  0  0
  3 28  1  6  0  0  0
  4  8  1  1  0  0  0
  4  9  1  6  0  0  0
  4 10  1  0  0  0  0
  5 11  1  0  0  0  0
 12  6  1  0  0  0  0
  6 13  1  0  0  0  0
  6 26  1  1  0  0  0
  7 10  1  0  0  0  0
  8 14  1  0  0  0  0
  8 15  2  0  0  0  0
 12 11  1  0  0  0  0
 12 16  1  0  0  0  0
 12 27  1  6  0  0  0
 13 17  2  0  0  0  0
 16 18  1  1  0  0  0
 16 19  1  0  0  0  0
 16 20  1  0  0  0  0
 17 19  1  0  0  0  0
 17 21  1  0  0  0  0
 19 22  2  0  0  0  0
 20 23  1  0  0  0  0
 22 24  1  0  0  0  0
 23 24  1  0  0  0  0
 24 25  2  0  0  0  0
M  END
> <DATABASE_ID>
DB09124

> <DATABASE_NAME>
drugbank

> <SMILES>
[H][C@@]12CC[C@](C)(C(C)=O)[C@@]1(C)CC[C@@]1([H])[C@@]2([H])C=C(C)C2=CC(=O)CC[C@]12C

> <INCHI_IDENTIFIER>
InChI=1S/C23H32O2/c1-14-12-17-18(21(3)9-6-16(25)13-20(14)21)7-11-23(5)19(17)8-10-22(23,4)15(2)24/h12-13,17-19H,6-11H2,1-5H3/t17-,18+,19+,21-,22-,23+/m1/s1

> <INCHI_KEY>
HCFSGRMEEXUOSS-JXEXPEPMSA-N

> <FORMULA>
C23H32O2

> <MOLECULAR_WEIGHT>
340.507

> <EXACT_MASS>
340.24023027

> <JCHEM_ACCEPTOR_COUNT>
2

> <JCHEM_ATOM_COUNT>
57

> <JCHEM_AVERAGE_POLARIZABILITY>
40.36571735201397

> <JCHEM_BIOAVAILABILITY>
1

> <JCHEM_DONOR_COUNT>
0

> <JCHEM_FORMAL_CHARGE>
0

> <JCHEM_GHOSE_FILTER>
1

> <JCHEM_IUPAC>
(1S,2R,10R,11S,14S,15S)-14-acetyl-2,8,14,15-tetramethyltetracyclo[8.7.0.0^{2,7}.0^{11,15}]heptadeca-6,8-dien-5-one

> <ALOGPS_LOGP>
4.35

> <JCHEM_LOGP>
4.586058317666668

> <ALOGPS_LOGS>
-4.93

> <JCHEM_MDDR_LIKE_RULE>
0

> <JCHEM_NUMBER_OF_RINGS>
4

> <JCHEM_PHYSIOLOGICAL_CHARGE>
0

> <JCHEM_PKA_STRONGEST_ACIDIC>
19.184436739142203

> <JCHEM_PKA_STRONGEST_BASIC>
-4.862641488574342

> <JCHEM_POLAR_SURFACE_AREA>
34.14

> <JCHEM_REFRACTIVITY>
102.60489999999997

> <JCHEM_ROTATABLE_BOND_COUNT>
1

> <JCHEM_RULE_OF_FIVE>
1

> <ALOGPS_SOLUBILITY>
4.04e-03 g/l

> <JCHEM_TRADITIONAL_IUPAC>
(1S,2R,10R,11S,14S,15S)-14-acetyl-2,8,14,15-tetramethyltetracyclo[8.7.0.0^{2,7}.0^{11,15}]heptadeca-6,8-dien-5-one

> <JCHEM_VEBER_RULE>
1

> <DRUGBANK_ID>
DB09124

> <DRUG_GROUPS>
approved; withdrawn

> <GENERIC_NAME>
Medrogestone

> <PRODUCTS>
Colprone Tab 5mg

$$$$

  Mrv1572010161515172D          

 17 18  0  0  0  0            999 V2000
   -2.5162    0.2062    0.0000 C   0  0  0  0  0  0  0  0  0  0  0  0
   -2.5162    1.0312    0.0000 C   0  0  0  0  0  0  0  0  0  0  0  0
   -1.8150    1.4437    0.0000 C   0  0  0  0  0  0  0  0  0  0  0  0
   -1.0725    1.0312    0.0000 C   0  0  0  0  0  0  0  0  0  0  0  0
   -1.0725    0.2062    0.0000 C   0  0  0  0  0  0  0  0  0  0  0  0
   -1.8150   -0.2062    0.0000 C   0  0  0  0  0  0  0  0  0  0  0  0
   -0.3712   -0.2062    0.0000 O   0  0  0  0  0  0  0  0  0  0  0  0
    0.3712    0.2062    0.0000 C   0  0  0  0  0  0  0  0  0  0  0  0
    1.0725   -0.2062    0.0000 C   0  0  0  0  0  0  0  0  0  0  0  0
   -0.3712    1.4437    0.0000 O   0  0  0  0  0  0  0  0  0  0  0  0
    0.3712    1.0312    0.0000 C   0  0  0  0  0  0  0  0  0  0  0  0
    1.0725    1.4437    0.0000 C   0  0  0  0  0  0  0  0  0  0  0  0
    1.7737    0.2062    0.0000 O   0  0  0  0  0  0  0  0  0  0  0  0
    2.5162   -0.2062    0.0000 C   0  0  0  0  0  0  0  0  0  0  0  0
    2.5162   -1.0312    0.0000 C   0  0  0  0  0  0  0  0  0  0  0  0
    1.7737   -1.4437    0.0000 N   0  0  0  0  0  0  0  0  0  0  0  0
    1.0725   -1.0312    0.0000 C   0  0  0  0  0  0  0  0  0  0  0  0
  1  2  2  0  0  0  0
  2  3  1  0  0  0  0
  3  4  2  0  0  0  0
  4  5  1  0  0  0  0
  5  6  2  0  0  0  0
  1  6  1  0  0  0  0
  5  7  1  0  0  0  0
  7  8  1  0  0  0  0
  8  9  1  0  0  0  0
  4 10  1  0  0  0  0
 10 11  1  0  0  0  0
 11 12  1  0  0  0  0
  9 13  1  0  0  0  0
 13 14  1  0  0  0  0
 14 15  1  0  0  0  0
 15 16  1  0  0  0  0
 16 17  1  0  0  0  0
  9 17  1  0  0  0  0
M  END
> <DATABASE_ID>
DB09185

> <DATABASE_NAME>
drugbank

> <SMILES>
CCOC1=CC=CC=C1OCC1CNCCO1

> <INCHI_IDENTIFIER>
InChI=1S/C13H19NO3/c1-2-15-12-5-3-4-6-13(12)17-10-11-9-14-7-8-16-11/h3-6,11,14H,2,7-10H2,1H3

> <INCHI_KEY>
YWPHCCPCQOJSGZ-UHFFFAOYSA-N

> <FORMULA>
C13H19NO3

> <MOLECULAR_WEIGHT>
237.299

> <EXACT_MASS>
237.136493476

> <JCHEM_ACCEPTOR_COUNT>
4

> <JCHEM_ATOM_COUNT>
36

> <JCHEM_AVERAGE_POLARIZABILITY>
26.31962681486784

> <JCHEM_BIOAVAILABILITY>
1

> <JCHEM_DONOR_COUNT>
1

> <JCHEM_FORMAL_CHARGE>
0

> <JCHEM_GHOSE_FILTER>
1

> <JCHEM_IUPAC>
2-[(2-ethoxyphenoxy)methyl]morpholine

> <ALOGPS_LOGP>
1.71

> <JCHEM_LOGP>
1.4915744426666662

> <ALOGPS_LOGS>
-2.28

> <JCHEM_MDDR_LIKE_RULE>
0

> <JCHEM_NUMBER_OF_RINGS>
2

> <JCHEM_PHYSIOLOGICAL_CHARGE>
1

> <JCHEM_PKA_STRONGEST_BASIC>
8.19456910713374

> <JCHEM_POLAR_SURFACE_AREA>
39.72

> <JCHEM_REFRACTIVITY>
65.2021

> <JCHEM_ROTATABLE_BOND_COUNT>
5

> <JCHEM_RULE_OF_FIVE>
1

> <ALOGPS_SOLUBILITY>
1.24e+00 g/l

> <JCHEM_TRADITIONAL_IUPAC>
viloxazine

> <JCHEM_VEBER_RULE>
1

> <DRUGBANK_ID>
DB09185

> <DRUG_GROUPS>
approved; investigational; withdrawn

> <GENERIC_NAME>
Viloxazine

> <SYNONYMS>
2-((2-Ethoxyphenoxy)methyl)morpholine; Viloxazina; Viloxazine; Viloxazinum

> <INTERNATIONAL_BRANDS>
Emovit

> <SALTS>
Viloxazine hydrochloride

$$$$

  Mrv1718009271717542D          

 26 28  0  0  0  0            999 V2000
   -3.7314    0.2537    0.0000 C   0  0  0  0  0  0  0  0  0  0  0  0
   -4.4460   -0.1587    0.0000 C   0  0  0  0  0  0  0  0  0  0  0  0
   -4.4460   -0.9837    0.0000 C   0  0  0  0  0  0  0  0  0  0  0  0
   -3.7314   -1.3962    0.0000 C   0  0  0  0  0  0  0  0  0  0  0  0
   -3.0169   -0.9837    0.0000 C   0  0  0  0  0  0  0  0  0  0  0  0
   -3.0169   -0.1587    0.0000 C   0  0  0  0  0  0  0  0  0  0  0  0
   -3.7314   -2.2212    0.0000 Cl  0  0  0  0  0  0  0  0  0  0  0  0
   -2.3025    0.2537    0.0000 N   0  0  0  0  0  0  0  0  0  0  0  0
   -1.5879   -0.1587    0.0000 C   0  0  0  0  0  0  0  0  0  0  0  0
   -0.8735    0.2537    0.0000 C   0  0  0  0  0  0  0  0  0  0  0  0
   -0.8735    1.0787    0.0000 N   0  0  0  0  0  0  0  0  0  0  0  0
   -1.5879    1.4912    0.0000 C   0  0  0  0  0  0  0  0  0  0  0  0
   -2.3025    1.0787    0.0000 C   0  0  0  0  0  0  0  0  0  0  0  0
   -0.1590    1.4912    0.0000 C   0  0  0  0  0  0  0  0  0  0  0  0
    0.5554    1.0787    0.0000 C   0  0  0  0  0  0  0  0  0  0  0  0
    1.2698    1.4912    0.0000 C   0  0  0  0  0  0  0  0  0  0  0  0
    1.9843    1.0787    0.0000 N   0  0  0  0  0  0  0  0  0  0  0  0
    2.0706    0.2582    0.0000 N   0  0  0  0  0  0  0  0  0  0  0  0
    2.8775    0.0867    0.0000 C   0  0  0  0  0  0  0  0  0  0  0  0
    3.2900    0.8012    0.0000 N   0  0  0  0  0  0  0  0  0  0  0  0
    2.7380    1.4142    0.0000 C   0  0  0  0  0  0  0  0  0  0  0  0
    2.9095    2.2212    0.0000 O   0  0  0  0  0  0  0  0  0  0  0  0
    4.1105    0.8874    0.0000 C   0  0  0  0  0  0  0  0  0  0  0  0
    4.4460    1.6411    0.0000 C   0  0  0  0  0  0  0  0  0  0  0  0
    3.2131   -0.6669    0.0000 C   0  0  0  0  0  0  0  0  0  0  0  0
    4.0335   -0.7531    0.0000 C   0  0  0  0  0  0  0  0  0  0  0  0
  1  2  1  0  0  0  0
  1  6  2  0  0  0  0
  2  3  2  0  0  0  0
  3  4  1  0  0  0  0
  4  5  2  0  0  0  0
  5  6  1  0  0  0  0
  4  7  1  0  0  0  0
  6  8  1  0  0  0  0
  8  9  1  0  0  0  0
 13  8  1  0  0  0  0
  9 10  1  0  0  0  0
 10 11  1  0  0  0  0
 11 12  1  0  0  0  0
 12 13  1  0  0  0  0
 11 14  1  0  0  0  0
 14 15  1  0  0  0  0
 15 16  1  0  0  0  0
 16 17  1  0  0  0  0
 17 18  1  0  0  0  0
 17 21  1  0  0  0  0
 18 19  2  0  0  0  0
 19 20  1  0  0  0  0
 20 21  1  0  0  0  0
 21 22  2  0  0  0  0
 20 23  1  0  0  0  0
 23 24  1  0  0  0  0
 19 25  1  0  0  0  0
 25 26  1  0  0  0  0
M  END
> <DATABASE_ID>
DB09194

> <DATABASE_NAME>
drugbank

> <SMILES>
CCN1C(=O)N(CCCN2CCN(CC2)C2=CC=CC(Cl)=C2)N=C1CC

> <INCHI_IDENTIFIER>
InChI=1S/C19H28ClN5O/c1-3-18-21-25(19(26)24(18)4-2)10-6-9-22-11-13-23(14-12-22)17-8-5-7-16(20)15-17/h5,7-8,15H,3-4,6,9-14H2,1-2H3

> <INCHI_KEY>
IZBNNCFOBMGTQX-UHFFFAOYSA-N

> <FORMULA>
C19H28ClN5O

> <MOLECULAR_WEIGHT>
377.92

> <EXACT_MASS>
377.1982382

> <JCHEM_ACCEPTOR_COUNT>
4

> <JCHEM_ATOM_COUNT>
54

> <JCHEM_AVERAGE_POLARIZABILITY>
42.23032908147728

> <JCHEM_BIOAVAILABILITY>
1

> <JCHEM_DONOR_COUNT>
0

> <JCHEM_FORMAL_CHARGE>
0

> <JCHEM_GHOSE_FILTER>
1

> <JCHEM_IUPAC>
1-{3-[4-(3-chlorophenyl)piperazin-1-yl]propyl}-3,4-diethyl-4,5-dihydro-1H-1,2,4-triazol-5-one

> <ALOGPS_LOGP>
2.81

> <JCHEM_LOGP>
3.365726241999999

> <ALOGPS_LOGS>
-2.95

> <JCHEM_MDDR_LIKE_RULE>
1

> <JCHEM_NUMBER_OF_RINGS>
3

> <JCHEM_PHYSIOLOGICAL_CHARGE>
1

> <JCHEM_PKA_STRONGEST_BASIC>
7.088044376722874

> <JCHEM_POLAR_SURFACE_AREA>
42.39

> <JCHEM_REFRACTIVITY>
106.57239999999999

> <JCHEM_ROTATABLE_BOND_COUNT>
7

> <JCHEM_RULE_OF_FIVE>
1

> <ALOGPS_SOLUBILITY>
4.25e-01 g/l

> <JCHEM_TRADITIONAL_IUPAC>
etoperidone

> <JCHEM_VEBER_RULE>
0

> <DRUGBANK_ID>
DB09194

> <DRUG_GROUPS>
withdrawn

> <GENERIC_NAME>
Etoperidone

> <INTERNATIONAL_BRANDS>
Axiomin; Depracer; Etoran; Staff

> <SALTS>
Etoperidone hydrochloride

$$$$

  Mrv1572010211512032D          

 25 28  0  0  0  0            999 V2000
   -2.8621   -0.4713    0.0000 C   0  0  0  0  0  0  0  0  0  0  0  0
   -2.8621   -1.2963    0.0000 C   0  0  0  0  0  0  0  0  0  0  0  0
   -2.1476   -1.7088    0.0000 C   0  0  0  0  0  0  0  0  0  0  0  0
   -1.4331   -1.2963    0.0000 C   0  0  0  0  0  0  0  0  0  0  0  0
   -1.4331   -0.4713    0.0000 C   0  0  0  0  0  0  0  0  0  0  0  0
   -2.1476   -0.0588    0.0000 C   0  0  0  0  0  0  0  0  0  0  0  0
   -0.7187   -1.7088    0.0000 S   0  0  0  0  0  0  0  0  0  0  0  0
   -0.0042   -1.2963    0.0000 N   0  0  0  0  0  0  0  0  0  0  0  0
   -0.0042   -0.4713    0.0000 C   0  0  0  0  0  0  0  0  0  0  0  0
   -0.7187   -0.0588    0.0000 C   0  0  0  0  0  0  0  0  0  0  0  0
    0.7102   -0.0588    0.0000 C   0  0  0  0  0  0  0  0  0  0  0  0
    0.7102    0.7661    0.0000 N   0  0  0  0  0  0  0  0  0  0  0  0
   -0.0042    1.1786    0.0000 C   0  0  0  0  0  0  0  0  0  0  0  0
   -0.7187    0.7661    0.0000 O   0  0  0  0  0  0  0  0  0  0  0  0
    1.4368    1.1857    0.0000 C   0  0  0  0  0  0  0  0  0  0  0  0
    2.1476    0.7755    0.0000 C   0  0  0  0  0  0  0  0  0  0  0  0
    2.8621    1.1880    0.0000 C   0  0  0  0  0  0  0  0  0  0  0  0
    2.8620    2.0130    0.0000 C   0  0  0  0  0  0  0  0  0  0  0  0
    2.1512    2.4233    0.0000 C   0  0  0  0  0  0  0  0  0  0  0  0
    1.4368    2.0107    0.0000 N   0  0  0  0  0  0  0  0  0  0  0  0
   -0.0042    2.0035    0.0000 O   0  0  0  0  0  0  0  0  0  0  0  0
    0.7014   -1.7038    0.0000 C   0  0  0  0  0  0  0  0  0  0  0  0
    1.4368   -0.4785    0.0000 O   0  0  0  0  0  0  0  0  0  0  0  0
   -1.1311   -2.4233    0.0000 O   0  0  0  0  0  0  0  0  0  0  0  0
   -0.3062   -2.4233    0.0000 O   0  0  0  0  0  0  0  0  0  0  0  0
  1  2  2  0  0  0  0
  2  3  1  0  0  0  0
  3  4  2  0  0  0  0
  4  5  1  0  0  0  0
  5  6  2  0  0  0  0
  1  6  1  0  0  0  0
  4  7  1  0  0  0  0
  7  8  1  0  0  0  0
  8  9  1  0  0  0  0
  9 10  2  0  0  0  0
  5 10  1  0  0  0  0
  9 11  1  0  0  0  0
 11 12  1  0  0  0  0
 12 13  1  0  0  0  0
 13 14  1  0  0  0  0
 10 14  1  0  0  0  0
 12 15  1  0  0  0  0
 15 16  2  0  0  0  0
 16 17  1  0  0  0  0
 17 18  2  0  0  0  0
 18 19  1  0  0  0  0
 19 20  2  0  0  0  0
 15 20  1  0  0  0  0
 13 21  2  0  0  0  0
  8 22  1  0  0  0  0
 11 23  2  0  0  0  0
  7 24  2  0  0  0  0
 25  7  2  0  0  0  0
M  END
> <DATABASE_ID>
DB09215

> <DATABASE_NAME>
drugbank

> <SMILES>
CN1C2=C(OC(=O)N(C2=O)C2=CC=CC=N2)C2=CC=CC=C2S1(=O)=O

> <INCHI_IDENTIFIER>
InChI=1S/C16H11N3O5S/c1-18-13-14(10-6-2-3-7-11(10)25(18,22)23)24-16(21)19(15(13)20)12-8-4-5-9-17-12/h2-9H,1H3

> <INCHI_KEY>
OEHFRZLKGRKFAS-UHFFFAOYSA-N

> <FORMULA>
C16H11N3O5S

> <MOLECULAR_WEIGHT>
357.34

> <EXACT_MASS>
357.04194164

> <JCHEM_ACCEPTOR_COUNT>
5

> <JCHEM_ATOM_COUNT>
36

> <JCHEM_AVERAGE_POLARIZABILITY>
33.90424365086637

> <JCHEM_BIOAVAILABILITY>
1

> <JCHEM_DONOR_COUNT>
0

> <JCHEM_FORMAL_CHARGE>
0

> <JCHEM_GHOSE_FILTER>
1

> <JCHEM_IUPAC>
8-methyl-5-(pyridin-2-yl)-3-oxa-9λ⁶-thia-5,8-diazatricyclo[8.4.0.0²,⁷]tetradeca-1(14),2(7),10,12-tetraene-4,6,9,9-tetrone

> <ALOGPS_LOGP>
1.75

> <JCHEM_LOGP>
1.225030268

> <ALOGPS_LOGS>
-4.05

> <JCHEM_MDDR_LIKE_RULE>
0

> <JCHEM_NUMBER_OF_RINGS>
4

> <JCHEM_PHYSIOLOGICAL_CHARGE>
0

> <JCHEM_PKA_STRONGEST_BASIC>
0.9241416057971596

> <JCHEM_POLAR_SURFACE_AREA>
96.88

> <JCHEM_REFRACTIVITY>
88.19089999999998

> <JCHEM_ROTATABLE_BOND_COUNT>
1

> <JCHEM_RULE_OF_FIVE>
1

> <ALOGPS_SOLUBILITY>
3.19e-02 g/l

> <JCHEM_TRADITIONAL_IUPAC>
droxicam

> <JCHEM_VEBER_RULE>
0

> <DRUGBANK_ID>
DB09215

> <DRUG_GROUPS>
withdrawn

> <GENERIC_NAME>
Droxicam

> <SYNONYMS>
droxicam

$$$$

  Mrv1572010221516242D          

 22 24  0  0  0  0            999 V2000
    0.0414    0.0686    0.0000 C   0  0  0  0  0  0  0  0  0  0  0  0
   -0.4554    0.7312    0.0000 C   0  0  0  0  0  0  0  0  0  0  0  0
   -0.2484    1.5179    0.0000 C   0  0  0  0  0  0  0  0  0  0  0  0
    0.4969    1.8491    0.0000 S   0  0  0  0  0  0  0  0  0  0  0  0
    0.8695    0.0686    0.0000 C   0  0  0  0  0  0  0  0  0  0  0  0
    1.2422    1.4765    0.0000 C   0  0  0  0  0  0  0  0  0  0  0  0
    1.4078    0.6898    0.0000 C   0  0  0  0  0  0  0  0  0  0  0  0
   -0.8695    2.0975    0.0000 C   0  0  0  0  0  0  0  0  0  0  0  0
   -1.6561    1.8491    0.0000 C   0  0  0  0  0  0  0  0  0  0  0  0
   -1.8632    1.0624    0.0000 C   0  0  0  0  0  0  0  0  0  0  0  0
   -1.2421    0.4828    0.0000 C   0  0  0  0  0  0  0  0  0  0  0  0
    2.1945    0.4413    0.0000 C   0  0  0  0  0  0  0  0  0  0  0  0
    2.8156    0.9797    0.0000 C   0  0  0  0  0  0  0  0  0  0  0  0
    2.6500    1.8077    0.0000 C   0  0  0  0  0  0  0  0  0  0  0  0
    1.8633    2.0562    0.0000 C   0  0  0  0  0  0  0  0  0  0  0  0
   -2.6499    0.8141    0.0000 Cl  0  0  0  0  0  0  0  0  0  0  0  0
   -0.3312   -0.6766    0.0000 O   0  0  0  0  0  0  0  0  0  0  0  0
   -1.1593   -0.6766    0.0000 C   0  0  0  0  0  0  0  0  0  0  0  0
   -1.5734   -1.3804    0.0000 C   0  0  0  0  0  0  0  0  0  0  0  0
   -2.4015   -1.3804    0.0000 N   0  0  0  0  0  0  0  0  0  0  0  0
   -2.8156   -0.6632    0.0000 C   0  0  0  0  0  0  0  0  0  0  0  0
   -2.8156   -2.0975    0.0000 C   0  0  0  0  0  0  0  0  0  0  0  0
  3  4  1  0  0  0  0
  1  5  2  0  0  0  0
  4  6  1  0  0  0  0
  2  3  1  0  0  0  0
  5  7  1  0  0  0  0
  1  2  1  0  0  0  0
  6  7  1  0  0  0  0
  3  8  2  0  0  0  0
  8  9  1  0  0  0  0
  9 10  2  0  0  0  0
 10 11  1  0  0  0  0
  2 11  2  0  0  0  0
  7 12  2  0  0  0  0
 12 13  1  0  0  0  0
 13 14  2  0  0  0  0
 14 15  1  0  0  0  0
  6 15  2  0  0  0  0
 10 16  1  0  0  0  0
  1 17  1  0  0  0  0
 17 18  1  0  0  0  0
 18 19  1  0  0  0  0
 19 20  1  0  0  0  0
 20 21  1  0  0  0  0
 20 22  1  0  0  0  0
M  END
> <DATABASE_ID>
DB09225

> <DATABASE_NAME>
drugbank

> <SMILES>
CN(C)CCOC1=CC2=CC=CC=C2SC2=CC=C(Cl)C=C12

> <INCHI_IDENTIFIER>
InChI=1S/C18H18ClNOS/c1-20(2)9-10-21-16-11-13-5-3-4-6-17(13)22-18-8-7-14(19)12-15(16)18/h3-8,11-12H,9-10H2,1-2H3

> <INCHI_KEY>
HDOZVRUNCMBHFH-UHFFFAOYSA-N

> <FORMULA>
C18H18ClNOS

> <MOLECULAR_WEIGHT>
331.86

> <EXACT_MASS>
331.0797631

> <JCHEM_ACCEPTOR_COUNT>
2

> <JCHEM_ATOM_COUNT>
40

> <JCHEM_AVERAGE_POLARIZABILITY>
36.2053373032629

> <JCHEM_BIOAVAILABILITY>
1

> <JCHEM_DONOR_COUNT>
0

> <JCHEM_FORMAL_CHARGE>
0

> <JCHEM_GHOSE_FILTER>
1

> <JCHEM_IUPAC>
[2-({6-chloro-2-thiatricyclo[9.4.0.0³,⁸]pentadeca-1(15),3,5,7,9,11,13-heptaen-9-yl}oxy)ethyl]dimethylamine

> <ALOGPS_LOGP>
4.74

> <JCHEM_LOGP>
4.5105601879999995

> <ALOGPS_LOGS>
-5.63

> <JCHEM_MDDR_LIKE_RULE>
0

> <JCHEM_NUMBER_OF_RINGS>
3

> <JCHEM_PHYSIOLOGICAL_CHARGE>
1

> <JCHEM_PKA_STRONGEST_BASIC>
8.92264646745926

> <JCHEM_POLAR_SURFACE_AREA>
12.47

> <JCHEM_REFRACTIVITY>
97.6063

> <JCHEM_ROTATABLE_BOND_COUNT>
4

> <JCHEM_RULE_OF_FIVE>
1

> <ALOGPS_SOLUBILITY>
7.77e-04 g/l

> <JCHEM_TRADITIONAL_IUPAC>
compound-4

> <JCHEM_VEBER_RULE>
1

> <DRUGBANK_ID>
DB09225

> <DRUG_GROUPS>
approved; investigational; withdrawn

> <GENERIC_NAME>
Zotepine

> <SYNONYMS>
Zotepina; Zotepine

> <INTERNATIONAL_BRANDS>
Losizopilon; Zoleptil

$$$$

  Mrv1572010231518232D          

 18 19  0  0  0  0            999 V2000
    1.0716    1.0312    0.0000 O   0  0  0  0  0  0  0  0  0  0  0  0
    0.3572   -0.2062    0.0000 N   0  0  0  0  0  0  0  0  0  0  0  0
   -0.3572    0.2062    0.0000 N   0  0  0  0  0  0  0  0  0  0  0  0
    1.7861   -0.2062    0.0000 C   0  0  0  0  0  0  0  0  0  0  0  0
    1.0716    0.2062    0.0000 C   0  0  0  0  0  0  0  0  0  0  0  0
   -1.7861    0.2062    0.0000 C   0  0  0  0  0  0  0  0  0  0  0  0
   -1.0717   -0.2062    0.0000 C   0  0  0  0  0  0  0  0  0  0  0  0
    2.5006    0.2062    0.0000 C   0  0  0  0  0  0  0  0  0  0  0  0
    1.7861   -1.0312    0.0000 C   0  0  0  0  0  0  0  0  0  0  0  0
   -2.5006   -0.2062    0.0000 C   0  0  0  0  0  0  0  0  0  0  0  0
   -1.7861    1.0312    0.0000 C   0  0  0  0  0  0  0  0  0  0  0  0
    3.2151   -0.2062    0.0000 C   0  0  0  0  0  0  0  0  0  0  0  0
    2.5006   -1.4437    0.0000 C   0  0  0  0  0  0  0  0  0  0  0  0
   -3.2151    0.2062    0.0000 C   0  0  0  0  0  0  0  0  0  0  0  0
   -2.5006    1.4437    0.0000 C   0  0  0  0  0  0  0  0  0  0  0  0
    3.2151   -1.0312    0.0000 C   0  0  0  0  0  0  0  0  0  0  0  0
   -1.0717   -1.0312    0.0000 C   0  0  0  0  0  0  0  0  0  0  0  0
   -3.2151    1.0312    0.0000 C   0  0  0  0  0  0  0  0  0  0  0  0
  1  5  2  0  0  0  0
  2  3  1  0  0  0  0
  2  5  1  0  0  0  0
  3  7  1  0  0  0  0
  4  5  1  0  0  0  0
  4  8  2  0  0  0  0
  4  9  1  0  0  0  0
  6  7  1  0  0  0  0
  6 10  2  0  0  0  0
  6 11  1  0  0  0  0
  7 17  1  0  0  0  0
  8 12  1  0  0  0  0
  9 13  2  0  0  0  0
 10 14  1  0  0  0  0
 11 15  2  0  0  0  0
 12 16  2  0  0  0  0
 13 16  1  0  0  0  0
 14 18  2  0  0  0  0
 15 18  1  0  0  0  0
M  END
> <DATABASE_ID>
DB09246

> <DATABASE_NAME>
drugbank

> <SMILES>
CC(NNC(=O)C1=CC=CC=C1)C1=CC=CC=C1

> <INCHI_IDENTIFIER>
InChI=1S/C15H16N2O/c1-12(13-8-4-2-5-9-13)16-17-15(18)14-10-6-3-7-11-14/h2-12,16H,1H3,(H,17,18)

> <INCHI_KEY>
BEWNZPMDJIGBED-UHFFFAOYSA-N

> <FORMULA>
C15H16N2O

> <MOLECULAR_WEIGHT>
240.306

> <EXACT_MASS>
240.126263143

> <JCHEM_ACCEPTOR_COUNT>
2

> <JCHEM_ATOM_COUNT>
34

> <JCHEM_AVERAGE_POLARIZABILITY>
26.675371787229757

> <JCHEM_BIOAVAILABILITY>
1

> <JCHEM_DONOR_COUNT>
2

> <JCHEM_FORMAL_CHARGE>
0

> <JCHEM_GHOSE_FILTER>
1

> <JCHEM_IUPAC>
N'-(1-phenylethyl)benzohydrazide

> <ALOGPS_LOGP>
2.26

> <JCHEM_LOGP>
2.8921346249999997

> <ALOGPS_LOGS>
-3.92

> <JCHEM_MDDR_LIKE_RULE>
0

> <JCHEM_NUMBER_OF_RINGS>
2

> <JCHEM_PHYSIOLOGICAL_CHARGE>
0

> <JCHEM_PKA_STRONGEST_ACIDIC>
14.466032842957432

> <JCHEM_PKA_STRONGEST_BASIC>
3.315935537503056

> <JCHEM_POLAR_SURFACE_AREA>
41.13

> <JCHEM_REFRACTIVITY>
82.97940000000004

> <JCHEM_ROTATABLE_BOND_COUNT>
4

> <JCHEM_RULE_OF_FIVE>
1

> <ALOGPS_SOLUBILITY>
2.89e-02 g/l

> <JCHEM_TRADITIONAL_IUPAC>
benmoxine

> <JCHEM_VEBER_RULE>
0

> <DRUGBANK_ID>
DB09246

> <DRUG_GROUPS>
withdrawn

> <GENERIC_NAME>
Benmoxin

> <SYNONYMS>
Mebamoxine

$$$$

  Mrv1572010231518272D          

 16 16  0  0  0  0            999 V2000
   -2.8652    0.0000    0.0000 C   0  0  0  0  0  0  0  0  0  0  0  0
   -2.8652   -0.8250    0.0000 C   0  0  0  0  0  0  0  0  0  0  0  0
   -2.1508   -1.2375    0.0000 C   0  0  0  0  0  0  0  0  0  0  0  0
   -1.4363   -0.8250    0.0000 C   0  0  0  0  0  0  0  0  0  0  0  0
   -1.4363    0.0000    0.0000 C   0  0  0  0  0  0  0  0  0  0  0  0
   -2.1508    0.4125    0.0000 C   0  0  0  0  0  0  0  0  0  0  0  0
   -0.7070    0.4125    0.0000 O   0  0  0  0  0  0  0  0  0  0  0  0
    0.0074    0.0000    0.0000 C   0  0  0  0  0  0  0  0  0  0  0  0
    0.7218    0.4125    0.0000 C   0  0  0  0  0  0  0  0  0  0  0  0
    1.4363    0.0000    0.0000 N   0  0  0  0  0  0  0  0  0  0  0  0
    2.1508    0.4125    0.0000 N   0  0  0  0  0  0  0  0  0  0  0  0
    2.8652    0.0000    0.0000 C   0  0  0  0  0  0  0  0  0  0  0  0
    3.5797    0.4125    0.0000 C   0  0  0  0  0  0  0  0  0  0  0  0
   -3.5797   -1.2375    0.0000 Cl  0  0  0  0  0  0  0  0  0  0  0  0
    0.7218    1.2375    0.0000 O   0  0  0  0  0  0  0  0  0  0  0  0
    2.8652   -0.8250    0.0000 C   0  0  0  0  0  0  0  0  0  0  0  0
  1  2  2  0  0  0  0
  2  3  1  0  0  0  0
  3  4  2  0  0  0  0
  4  5  1  0  0  0  0
  5  6  2  0  0  0  0
  1  6  1  0  0  0  0
  5  7  1  0  0  0  0
  7  8  1  0  0  0  0
  8  9  1  0  0  0  0
  9 10  1  0  0  0  0
 10 11  1  0  0  0  0
 11 12  1  0  0  0  0
 12 13  1  0  0  0  0
  2 14  1  0  0  0  0
  9 15  2  0  0  0  0
 12 16  1  0  0  0  0
M  END
> <DATABASE_ID>
DB09247

> <DATABASE_NAME>
drugbank

> <SMILES>
CC(C)NNC(=O)COC1=CC=C(Cl)C=C1

> <INCHI_IDENTIFIER>
InChI=1S/C11H15ClN2O2/c1-8(2)13-14-11(15)7-16-10-5-3-9(12)4-6-10/h3-6,8,13H,7H2,1-2H3,(H,14,15)

> <INCHI_KEY>
GGECDTUJZOXAAR-UHFFFAOYSA-N

> <FORMULA>
C11H15ClN2O2

> <MOLECULAR_WEIGHT>
242.7

> <EXACT_MASS>
242.0822054

> <JCHEM_ACCEPTOR_COUNT>
3

> <JCHEM_ATOM_COUNT>
31

> <JCHEM_AVERAGE_POLARIZABILITY>
25.20632792261789

> <JCHEM_BIOAVAILABILITY>
1

> <JCHEM_DONOR_COUNT>
2

> <JCHEM_FORMAL_CHARGE>
0

> <JCHEM_GHOSE_FILTER>
1

> <JCHEM_IUPAC>
2-(4-chlorophenoxy)-N'-(propan-2-yl)acetohydrazide

> <ALOGPS_LOGP>
1.91

> <JCHEM_LOGP>
1.7912432733333334

> <ALOGPS_LOGS>
-3.08

> <JCHEM_MDDR_LIKE_RULE>
0

> <JCHEM_NUMBER_OF_RINGS>
1

> <JCHEM_PHYSIOLOGICAL_CHARGE>
0

> <JCHEM_PKA_STRONGEST_ACIDIC>
11.582553708577644

> <JCHEM_PKA_STRONGEST_BASIC>
3.9674399368428115

> <JCHEM_POLAR_SURFACE_AREA>
50.36

> <JCHEM_REFRACTIVITY>
73.21179999999998

> <JCHEM_ROTATABLE_BOND_COUNT>
5

> <JCHEM_RULE_OF_FIVE>
1

> <ALOGPS_SOLUBILITY>
2.00e-01 g/l

> <JCHEM_TRADITIONAL_IUPAC>
iproclozide

> <JCHEM_VEBER_RULE>
0

> <DRUGBANK_ID>
DB09247

> <DRUG_GROUPS>
withdrawn

> <GENERIC_NAME>
Iproclozide

$$$$

  Mrv1572010241500002D          

 10 10  0  0  0  0            999 V2000
    0.7132    1.0313    0.0000 N   0  0  0  0  0  0  0  0  0  0  0  0
   -0.0025    1.4388    0.0000 N   0  0  0  0  0  0  0  0  0  0  0  0
   -0.0025   -0.2063    0.0000 C   0  0  0  0  0  0  0  0  0  0  0  0
    0.7132    0.2063    0.0000 C   0  0  0  0  0  0  0  0  0  0  0  0
   -0.7132    0.2063    0.0000 C   0  0  0  0  0  0  0  0  0  0  0  0
   -0.0025   -1.0313    0.0000 C   0  0  0  0  0  0  0  0  0  0  0  0
   -1.4288   -0.2063    0.0000 C   0  0  0  0  0  0  0  0  0  0  0  0
   -0.7132   -1.4388    0.0000 C   0  0  0  0  0  0  0  0  0  0  0  0
   -1.4288   -1.0313    0.0000 C   0  0  0  0  0  0  0  0  0  0  0  0
    1.4288   -0.2063    0.0000 C   0  0  0  0  0  0  0  0  0  0  0  0
  1  2  1  0  0  0  0
  1  4  1  0  0  0  0
  3  4  1  0  0  0  0
  3  5  2  0  0  0  0
  3  6  1  0  0  0  0
  4 10  1  0  0  0  0
  5  7  1  0  0  0  0
  6  8  2  0  0  0  0
  7  9  2  0  0  0  0
  8  9  1  0  0  0  0
M  END
> <DATABASE_ID>
DB09248

> <DATABASE_NAME>
drugbank

> <SMILES>
CC(NN)C1=CC=CC=C1

> <INCHI_IDENTIFIER>
InChI=1S/C8H12N2/c1-7(10-9)8-5-3-2-4-6-8/h2-7,10H,9H2,1H3

> <INCHI_KEY>
HHRZAEJMHSGZNP-UHFFFAOYSA-N

> <FORMULA>
C8H12N2

> <MOLECULAR_WEIGHT>
136.198

> <EXACT_MASS>
136.100048394

> <JCHEM_ACCEPTOR_COUNT>
2

> <JCHEM_ATOM_COUNT>
22

> <JCHEM_AVERAGE_POLARIZABILITY>
15.649197349838733

> <JCHEM_BIOAVAILABILITY>
1

> <JCHEM_DONOR_COUNT>
2

> <JCHEM_FORMAL_CHARGE>
0

> <JCHEM_GHOSE_FILTER>
0

> <JCHEM_IUPAC>
(1-phenylethyl)hydrazine

> <ALOGPS_LOGP>
1.24

> <JCHEM_LOGP>
1.3309338623333329

> <ALOGPS_LOGS>
-1.11

> <JCHEM_MDDR_LIKE_RULE>
0

> <JCHEM_NUMBER_OF_RINGS>
1

> <JCHEM_PHYSIOLOGICAL_CHARGE>
0

> <JCHEM_PKA_STRONGEST_BASIC>
5.326105548064039

> <JCHEM_POLAR_SURFACE_AREA>
38.05

> <JCHEM_REFRACTIVITY>
53.92710000000002

> <JCHEM_ROTATABLE_BOND_COUNT>
2

> <JCHEM_RULE_OF_FIVE>
1

> <ALOGPS_SOLUBILITY>
1.06e+01 g/l

> <JCHEM_TRADITIONAL_IUPAC>
mebanazine

> <JCHEM_VEBER_RULE>
1

> <DRUGBANK_ID>
DB09248

> <DRUG_GROUPS>
withdrawn

> <GENERIC_NAME>
Mebanazine

$$$$

  Mrv1533004241520222D          

 10  9  0  0  0  0            999 V2000
    2.9980    2.5559    0.0000 C   0  0  0  0  0  0  0  0  0  0  0  0
    3.7125    2.1434    0.0000 C   0  0  0  0  0  0  0  0  0  0  0  0
    4.4270    2.5559    0.0000 C   0  0  0  0  0  0  0  0  0  0  0  0
    5.1414    2.1434    0.0000 C   0  0  0  0  0  0  0  0  0  0  0  0
    5.8559    2.5559    0.0000 C   0  0  0  0  0  0  0  0  0  0  0  0
    6.5704    2.1434    0.0000 C   0  0  0  0  0  0  0  0  0  0  0  0
    7.2849    2.5559    0.0000 C   0  0  0  0  0  0  0  0  0  0  0  0
    7.2849    3.3809    0.0000 C   0  0  0  0  0  0  0  0  0  0  0  0
    7.9993    2.1434    0.0000 N   0  0  0  0  0  0  0  0  0  0  0  0
    8.7138    2.5559    0.0000 N   0  0  0  0  0  0  0  0  0  0  0  0
  1  2  1  0  0  0  0
  2  3  1  0  0  0  0
  3  4  1  0  0  0  0
  4  5  1  0  0  0  0
  5  6  1  0  0  0  0
  6  7  1  0  0  0  0
  7  8  1  0  0  0  0
  7  9  1  0  0  0  0
  9 10  1  0  0  0  0
M  END
> <DATABASE_ID>
DB09249

> <DATABASE_NAME>
drugbank

> <SMILES>
CCCCCCC(C)NN

> <INCHI_IDENTIFIER>
InChI=1S/C8H20N2/c1-3-4-5-6-7-8(2)10-9/h8,10H,3-7,9H2,1-2H3

> <INCHI_KEY>
FODQIVGFADUBKE-UHFFFAOYSA-N

> <FORMULA>
C8H20N2

> <MOLECULAR_WEIGHT>
144.262

> <EXACT_MASS>
144.162648652

> <JCHEM_ACCEPTOR_COUNT>
2

> <JCHEM_ATOM_COUNT>
30

> <JCHEM_AVERAGE_POLARIZABILITY>
19.108116123406397

> <JCHEM_BIOAVAILABILITY>
1

> <JCHEM_DONOR_COUNT>
2

> <JCHEM_FORMAL_CHARGE>
0

> <JCHEM_GHOSE_FILTER>
0

> <JCHEM_IUPAC>
(octan-2-yl)hydrazine

> <ALOGPS_LOGP>
2.54

> <JCHEM_LOGP>
2.2640657546666665

> <ALOGPS_LOGS>
-1.36

> <JCHEM_MDDR_LIKE_RULE>
0

> <JCHEM_NUMBER_OF_RINGS>
0

> <JCHEM_PHYSIOLOGICAL_CHARGE>
0

> <JCHEM_PKA_STRONGEST_BASIC>
5.916939054767277

> <JCHEM_POLAR_SURFACE_AREA>
38.05

> <JCHEM_REFRACTIVITY>
56.9911

> <JCHEM_ROTATABLE_BOND_COUNT>
6

> <JCHEM_RULE_OF_FIVE>
1

> <ALOGPS_SOLUBILITY>
6.27e+00 g/l

> <JCHEM_TRADITIONAL_IUPAC>
octamoxin

> <JCHEM_VEBER_RULE>
1

> <DRUGBANK_ID>
DB09249

> <DRUG_GROUPS>
withdrawn

> <GENERIC_NAME>
Octamoxin

> <SYNONYMS>
 2-octylhydrazine

$$$$

  Mrv1572010241500082D          

 11 11  0  0  0  0            999 V2000
    1.0588   -0.3970    0.0000 N   0  0  0  0  0  0  0  0  0  0  0  0
    1.6401   -0.7610    0.0000 N   0  0  0  0  0  0  0  0  0  0  0  0
    0.3498    0.8224    0.0000 C   0  0  0  0  0  0  0  0  0  0  0  0
   -0.3639    0.4018    0.0000 C   0  0  0  0  0  0  0  0  0  0  0  0
    1.0588    0.4018    0.0000 C   0  0  0  0  0  0  0  0  0  0  0  0
   -0.3639   -0.3970    0.0000 C   0  0  0  0  0  0  0  0  0  0  0  0
   -1.0541    0.7988    0.0000 C   0  0  0  0  0  0  0  0  0  0  0  0
    1.7772    0.8224    0.0000 C   0  0  0  0  0  0  0  0  0  0  0  0
   -1.0541   -0.8224    0.0000 C   0  0  0  0  0  0  0  0  0  0  0  0
   -1.7772    0.4018    0.0000 C   0  0  0  0  0  0  0  0  0  0  0  0
   -1.7772   -0.4254    0.0000 C   0  0  0  0  0  0  0  0  0  0  0  0
  2  1  1  0  0  0  0
  3  5  1  0  0  0  0
  4  3  1  0  0  0  0
  5  1  1  0  0  0  0
  6  4  1  0  0  0  0
  7  4  2  0  0  0  0
  8  5  1  0  0  0  0
  9  6  2  0  0  0  0
 10  7  1  0  0  0  0
 11  9  1  0  0  0  0
 10 11  2  0  0  0  0
M  END
> <DATABASE_ID>
DB09250

> <DATABASE_NAME>
drugbank

> <SMILES>
CC(CC1=CC=CC=C1)NN

> <INCHI_IDENTIFIER>
InChI=1S/C9H14N2/c1-8(11-10)7-9-5-3-2-4-6-9/h2-6,8,11H,7,10H2,1H3

> <INCHI_KEY>
VXTWEDPZMSVFEF-UHFFFAOYSA-N

> <FORMULA>
C9H14N2

> <MOLECULAR_WEIGHT>
150.225

> <EXACT_MASS>
150.115698459

> <JCHEM_ACCEPTOR_COUNT>
2

> <JCHEM_ATOM_COUNT>
25

> <JCHEM_AVERAGE_POLARIZABILITY>
17.472316992716515

> <JCHEM_BIOAVAILABILITY>
1

> <JCHEM_DONOR_COUNT>
2

> <JCHEM_FORMAL_CHARGE>
0

> <JCHEM_GHOSE_FILTER>
0

> <JCHEM_IUPAC>
(1-phenylpropan-2-yl)hydrazine

> <ALOGPS_LOGP>
1.69

> <JCHEM_LOGP>
1.6195950673333332

> <ALOGPS_LOGS>
-1.60

> <JCHEM_MDDR_LIKE_RULE>
0

> <JCHEM_NUMBER_OF_RINGS>
1

> <JCHEM_PHYSIOLOGICAL_CHARGE>
0

> <JCHEM_PKA_STRONGEST_BASIC>
5.649550295774807

> <JCHEM_POLAR_SURFACE_AREA>
38.05

> <JCHEM_REFRACTIVITY>
58.682100000000005

> <JCHEM_ROTATABLE_BOND_COUNT>
3

> <JCHEM_RULE_OF_FIVE>
1

> <ALOGPS_SOLUBILITY>
3.75e+00 g/l

> <JCHEM_TRADITIONAL_IUPAC>
pheniprazine

> <JCHEM_VEBER_RULE>
1

> <DRUGBANK_ID>
DB09250

> <DRUG_GROUPS>
withdrawn

> <GENERIC_NAME>
Pheniprazine

> <SALTS>
Pheniprazine hydrochloride

$$$$

  Mrv1572010241500132D          

 15 15  0  0  0  0            999 V2000
   -0.5787   -0.1278    0.0000 O   0  0  0  0  0  0  0  0  0  0  0  0
    0.8502    1.5221    0.0000 N   0  0  0  0  0  0  0  0  0  0  0  0
    0.8502    2.3471    0.0000 N   0  0  0  0  0  0  0  0  0  0  0  0
    0.1357    1.1096    0.0000 C   0  0  0  0  0  0  0  0  0  0  0  0
    0.1357    0.2846    0.0000 C   0  0  0  0  0  0  0  0  0  0  0  0
   -0.5787    1.5221    0.0000 C   0  0  0  0  0  0  0  0  0  0  0  0
   -0.5787   -0.9529    0.0000 C   0  0  0  0  0  0  0  0  0  0  0  0
    0.1357   -1.3653    0.0000 C   0  0  0  0  0  0  0  0  0  0  0  0
   -1.2932   -1.3653    0.0000 C   0  0  0  0  0  0  0  0  0  0  0  0
    0.1357   -2.1904    0.0000 C   0  0  0  0  0  0  0  0  0  0  0  0
   -1.2932   -2.1904    0.0000 C   0  0  0  0  0  0  0  0  0  0  0  0
   -0.5787   -2.6029    0.0000 C   0  0  0  0  0  0  0  0  0  0  0  0
    1.2932    1.2663    0.0000 H   0  0  0  0  0  0  0  0  0  0  0  0
    1.2932    2.6029    0.0000 H   0  0  0  0  0  0  0  0  0  0  0  0
    0.4071    2.6029    0.0000 H   0  0  0  0  0  0  0  0  0  0  0  0
  1  5  1  0  0  0  0
  1  7  1  0  0  0  0
  2  3  1  0  0  0  0
  2  4  1  0  0  0  0
  2 13  1  0  0  0  0
  3 14  1  0  0  0  0
  3 15  1  0  0  0  0
  4  5  1  0  0  0  0
  4  6  1  0  0  0  0
  7  8  2  0  0  0  0
  7  9  1  0  0  0  0
  8 10  1  0  0  0  0
  9 11  2  0  0  0  0
 10 12  2  0  0  0  0
 11 12  1  0  0  0  0
M  END
> <DATABASE_ID>
DB09251

> <DATABASE_NAME>
drugbank

> <SMILES>
[H]N([H])N([H])C(C)COC1=CC=CC=C1

> <INCHI_IDENTIFIER>
InChI=1S/C9H14N2O/c1-8(11-10)7-12-9-5-3-2-4-6-9/h2-6,8,11H,7,10H2,1H3

> <INCHI_KEY>
QNEXFJFTGQBXBJ-UHFFFAOYSA-N

> <FORMULA>
C9H14N2O

> <MOLECULAR_WEIGHT>
166.224

> <EXACT_MASS>
166.110613079

> <JCHEM_ACCEPTOR_COUNT>
3

> <JCHEM_ATOM_COUNT>
26

> <JCHEM_AVERAGE_POLARIZABILITY>
18.67406761949035

> <JCHEM_BIOAVAILABILITY>
1

> <JCHEM_DONOR_COUNT>
2

> <JCHEM_FORMAL_CHARGE>
0

> <JCHEM_GHOSE_FILTER>
1

> <JCHEM_IUPAC>
(1-phenoxypropan-2-yl)hydrazine

> <ALOGPS_LOGP>
1.37

> <JCHEM_LOGP>
1.250510352

> <ALOGPS_LOGS>
-1.44

> <JCHEM_MDDR_LIKE_RULE>
0

> <JCHEM_NUMBER_OF_RINGS>
1

> <JCHEM_PHYSIOLOGICAL_CHARGE>
0

> <JCHEM_PKA_STRONGEST_BASIC>
5.45411973933432

> <JCHEM_POLAR_SURFACE_AREA>
47.28

> <JCHEM_REFRACTIVITY>
59.86670000000001

> <JCHEM_ROTATABLE_BOND_COUNT>
4

> <JCHEM_RULE_OF_FIVE>
1

> <ALOGPS_SOLUBILITY>
6.03e+00 g/l

> <JCHEM_TRADITIONAL_IUPAC>
phenoxypropazine

> <JCHEM_VEBER_RULE>
0

> <DRUGBANK_ID>
DB09251

> <DRUG_GROUPS>
withdrawn

> <GENERIC_NAME>
Phenoxypropazine

$$$$

  Mrv1572010241500162D          

 17 17  0  0  0  0            999 V2000
    1.3736    0.8250    0.0000 O   0  0  0  0  0  0  0  0  0  0  0  0
   -0.0552    0.8250    0.0000 N   0  0  0  0  0  0  0  0  0  0  0  0
   -0.0552    0.0000    0.0000 N   0  0  0  0  0  0  0  0  0  0  0  0
    0.6592    2.0625    0.0000 C   0  0  0  0  0  0  0  0  0  0  0  0
   -0.1657    2.0625    0.0000 C   0  0  0  0  0  0  0  0  0  0  0  0
    1.4842    2.0625    0.0000 C   0  0  0  0  0  0  0  0  0  0  0  0
    0.6592    2.8875    0.0000 C   0  0  0  0  0  0  0  0  0  0  0  0
    0.6592    1.2375    0.0000 C   0  0  0  0  0  0  0  0  0  0  0  0
   -0.7697   -0.4125    0.0000 C   0  0  0  0  0  0  0  0  0  0  0  0
   -0.7697   -1.2375    0.0000 C   0  0  0  0  0  0  0  0  0  0  0  0
   -0.0552   -1.6500    0.0000 C   0  0  0  0  0  0  0  0  0  0  0  0
   -1.4842   -1.6500    0.0000 C   0  0  0  0  0  0  0  0  0  0  0  0
   -0.0552   -2.4750    0.0000 C   0  0  0  0  0  0  0  0  0  0  0  0
   -1.4842   -2.4750    0.0000 C   0  0  0  0  0  0  0  0  0  0  0  0
   -0.7697   -2.8875    0.0000 C   0  0  0  0  0  0  0  0  0  0  0  0
   -0.4982    1.0807    0.0000 H   0  0  0  0  0  0  0  0  0  0  0  0
    0.3877   -0.2557    0.0000 H   0  0  0  0  0  0  0  0  0  0  0  0
  1  8  2  0  0  0  0
  2  3  1  0  0  0  0
  2  8  1  0  0  0  0
  2 16  1  0  0  0  0
  3  9  1  0  0  0  0
  3 17  1  0  0  0  0
  4  5  1  0  0  0  0
  4  6  1  0  0  0  0
  4  7  1  0  0  0  0
  4  8  1  0  0  0  0
  9 10  1  0  0  0  0
 10 11  2  0  0  0  0
 10 12  1  0  0  0  0
 11 13  1  0  0  0  0
 12 14  2  0  0  0  0
 13 15  2  0  0  0  0
 14 15  1  0  0  0  0
M  END
> <DATABASE_ID>
DB09252

> <DATABASE_NAME>
drugbank

> <SMILES>
[H]N(CC1=CC=CC=C1)N([H])C(=O)C(C)(C)C

> <INCHI_IDENTIFIER>
InChI=1S/C12H18N2O/c1-12(2,3)11(15)14-13-9-10-7-5-4-6-8-10/h4-8,13H,9H2,1-3H3,(H,14,15)

> <INCHI_KEY>
FWWDFDMCZLOXQI-UHFFFAOYSA-N

> <FORMULA>
C12H18N2O

> <MOLECULAR_WEIGHT>
206.289

> <EXACT_MASS>
206.141913208

> <JCHEM_ACCEPTOR_COUNT>
2

> <JCHEM_ATOM_COUNT>
33

> <JCHEM_AVERAGE_POLARIZABILITY>
23.28001508918415

> <JCHEM_BIOAVAILABILITY>
1

> <JCHEM_DONOR_COUNT>
2

> <JCHEM_FORMAL_CHARGE>
0

> <JCHEM_GHOSE_FILTER>
1

> <JCHEM_IUPAC>
N'-benzyl-2,2-dimethylpropanehydrazide

> <ALOGPS_LOGP>
1.77

> <JCHEM_LOGP>
2.420921589333334

> <ALOGPS_LOGS>
-2.80

> <JCHEM_MDDR_LIKE_RULE>
0

> <JCHEM_NUMBER_OF_RINGS>
1

> <JCHEM_PHYSIOLOGICAL_CHARGE>
0

> <JCHEM_PKA_STRONGEST_ACIDIC>
12.913330794794167

> <JCHEM_PKA_STRONGEST_BASIC>
3.405278352309588

> <JCHEM_POLAR_SURFACE_AREA>
41.13

> <JCHEM_REFRACTIVITY>
71.59250000000002

> <JCHEM_ROTATABLE_BOND_COUNT>
4

> <JCHEM_RULE_OF_FIVE>
1

> <ALOGPS_SOLUBILITY>
3.30e-01 g/l

> <JCHEM_TRADITIONAL_IUPAC>
pivalylbenzhydrazine

> <JCHEM_VEBER_RULE>
0

> <DRUGBANK_ID>
DB09252

> <DRUG_GROUPS>
withdrawn

> <GENERIC_NAME>
Pivhydrazine

> <SYNONYMS>
Pivalylbenzhydrazine; Pivazide

> <INTERNATIONAL_BRANDS>
Angorvid; Betamezid; Tersavid

$$$$

  Mrv1572010241500202D          

 15 16  0  0  0  0            999 V2000
   -2.7740    1.4425    0.0000 N   0  0  0  0  0  0  0  0  0  0  0  0
   -2.0583    1.0263    0.0000 N   0  0  0  0  0  0  0  0  0  0  0  0
   -2.0583    0.2052    0.0000 C   0  0  0  0  0  0  0  0  0  0  0  0
   -1.3482   -0.2052    0.0000 C   0  0  0  0  0  0  0  0  0  0  0  0
   -0.6325    0.2052    0.0000 C   0  0  0  0  0  0  0  0  0  0  0  0
    0.0777   -0.2052    0.0000 C   0  0  0  0  0  0  0  0  0  0  0  0
    0.0777   -1.0319    0.0000 C   0  0  0  0  0  0  0  0  0  0  0  0
    0.7933   -1.4425    0.0000 C   0  0  0  0  0  0  0  0  0  0  0  0
    1.5090   -1.0319    0.0000 C   0  0  0  0  0  0  0  0  0  0  0  0
    1.5090   -0.2052    0.0000 C   0  0  0  0  0  0  0  0  0  0  0  0
    0.7933    0.2052    0.0000 C   0  0  0  0  0  0  0  0  0  0  0  0
    2.2913    0.0499    0.0000 O   0  0  0  0  0  0  0  0  0  0  0  0
    2.7740   -0.6213    0.0000 C   0  0  0  0  0  0  0  0  0  0  0  0
    2.2913   -1.2870    0.0000 O   0  0  0  0  0  0  0  0  0  0  0  0
   -2.7740   -0.2052    0.0000 C   0  0  0  0  0  0  0  0  0  0  0  0
  1  2  1  0  0  0  0
  2  3  1  0  0  0  0
  3  4  1  0  0  0  0
  3 15  1  0  0  0  0
  4  5  1  0  0  0  0
  5  6  1  0  0  0  0
  6  7  1  0  0  0  0
  6 11  2  0  0  0  0
  7  8  2  0  0  0  0
  8  9  1  0  0  0  0
  9 10  2  0  0  0  0
  9 14  1  0  0  0  0
 10 11  1  0  0  0  0
 10 12  1  0  0  0  0
 12 13  1  0  0  0  0
 13 14  1  0  0  0  0
M  END
> <DATABASE_ID>
DB09253

> <DATABASE_NAME>
drugbank

> <SMILES>
CC(CCC1=CC2=C(OCO2)C=C1)NN

> <INCHI_IDENTIFIER>
InChI=1S/C11H16N2O2/c1-8(13-12)2-3-9-4-5-10-11(6-9)15-7-14-10/h4-6,8,13H,2-3,7,12H2,1H3

> <INCHI_KEY>
IBWPUTAKVGZXRB-UHFFFAOYSA-N

> <FORMULA>
C11H16N2O2

> <MOLECULAR_WEIGHT>
208.261

> <EXACT_MASS>
208.121177763

> <JCHEM_ACCEPTOR_COUNT>
4

> <JCHEM_ATOM_COUNT>
31

> <JCHEM_AVERAGE_POLARIZABILITY>
23.142393393148517

> <JCHEM_BIOAVAILABILITY>
1

> <JCHEM_DONOR_COUNT>
2

> <JCHEM_FORMAL_CHARGE>
0

> <JCHEM_GHOSE_FILTER>
1

> <JCHEM_IUPAC>
[4-(2H-1,3-benzodioxol-5-yl)butan-2-yl]hydrazine

> <ALOGPS_LOGP>
1.51

> <JCHEM_LOGP>
1.6873972

> <ALOGPS_LOGS>
-1.97

> <JCHEM_MDDR_LIKE_RULE>
0

> <JCHEM_NUMBER_OF_RINGS>
2

> <JCHEM_PHYSIOLOGICAL_CHARGE>
0

> <JCHEM_PKA_STRONGEST_BASIC>
5.79816051590171

> <JCHEM_POLAR_SURFACE_AREA>
56.510000000000005

> <JCHEM_REFRACTIVITY>
69.05000000000001

> <JCHEM_ROTATABLE_BOND_COUNT>
4

> <JCHEM_RULE_OF_FIVE>
1

> <ALOGPS_SOLUBILITY>
2.24e+00 g/l

> <JCHEM_TRADITIONAL_IUPAC>
[4-(2H-1,3-benzodioxol-5-yl)butan-2-yl]hydrazine

> <JCHEM_VEBER_RULE>
0

> <DRUGBANK_ID>
DB09253

> <DRUG_GROUPS>
withdrawn

> <GENERIC_NAME>
Safrazine

> <SYNONYMS>
Safra

$$$$

  Mrv1572010241500232D          

 15 16  0  0  0  0            999 V2000
   -0.3375    0.8240    0.0000 O   0  0  0  0  0  0  0  0  0  0  0  0
    1.0821    0.8191    0.0000 O   0  0  0  0  0  0  0  0  0  0  0  0
    1.7821    0.4120    0.0000 O   0  0  0  0  0  0  0  0  0  0  0  0
    0.3772   -0.4121    0.0000 N   0  0  0  0  0  0  0  0  0  0  0  0
    2.4820   -0.8191    0.0000 N   0  0  0  0  0  0  0  0  0  0  0  0
   -1.0523   -0.4121    0.0000 C   0  0  0  0  0  0  0  0  0  0  0  0
   -1.0523    0.4120    0.0000 C   0  0  0  0  0  0  0  0  0  0  0  0
    0.3772    0.4120    0.0000 C   0  0  0  0  0  0  0  0  0  0  0  0
   -0.3375   -0.8240    0.0000 C   0  0  0  0  0  0  0  0  0  0  0  0
    1.0821   -0.8191    0.0000 C   0  0  0  0  0  0  0  0  0  0  0  0
   -1.7672   -0.8240    0.0000 C   0  0  0  0  0  0  0  0  0  0  0  0
   -1.7672    0.8240    0.0000 C   0  0  0  0  0  0  0  0  0  0  0  0
    1.7821   -0.4170    0.0000 C   0  0  0  0  0  0  0  0  0  0  0  0
   -2.4820   -0.4121    0.0000 C   0  0  0  0  0  0  0  0  0  0  0  0
   -2.4820    0.4120    0.0000 C   0  0  0  0  0  0  0  0  0  0  0  0
  1  7  1  0  0  0  0
  1  8  1  0  0  0  0
  2  8  2  0  0  0  0
  3 13  2  0  0  0  0
  4  8  1  0  0  0  0
  4  9  1  0  0  0  0
  4 10  1  0  0  0  0
  5 13  1  0  0  0  0
  6  7  1  0  0  0  0
  6  9  1  0  0  0  0
  6 11  2  0  0  0  0
  7 12  2  0  0  0  0
 10 13  1  0  0  0  0
 11 14  1  0  0  0  0
 12 15  1  0  0  0  0
 14 15  2  0  0  0  0
M  END
> <DATABASE_ID>
DB09254

> <DATABASE_NAME>
drugbank

> <SMILES>
NC(=O)CN1CC2=CC=CC=C2OC1=O

> <INCHI_IDENTIFIER>
InChI=1S/C10H10N2O3/c11-9(13)6-12-5-7-3-1-2-4-8(7)15-10(12)14/h1-4H,5-6H2,(H2,11,13)

> <INCHI_KEY>
KYCBWEZLKCTALM-UHFFFAOYSA-N

> <FORMULA>
C10H10N2O3

> <MOLECULAR_WEIGHT>
206.201

> <EXACT_MASS>
206.06914219

> <JCHEM_ACCEPTOR_COUNT>
2

> <JCHEM_ATOM_COUNT>
25

> <JCHEM_AVERAGE_POLARIZABILITY>
19.900589984851365

> <JCHEM_BIOAVAILABILITY>
1

> <JCHEM_DONOR_COUNT>
1

> <JCHEM_FORMAL_CHARGE>
0

> <JCHEM_GHOSE_FILTER>
1

> <JCHEM_IUPAC>
2-(2-oxo-3,4-dihydro-2H-1,3-benzoxazin-3-yl)acetamide

> <ALOGPS_LOGP>
-0.25

> <JCHEM_LOGP>
0.11658138399999991

> <ALOGPS_LOGS>
-1.24

> <JCHEM_MDDR_LIKE_RULE>
0

> <JCHEM_NUMBER_OF_RINGS>
2

> <JCHEM_PHYSIOLOGICAL_CHARGE>
0

> <JCHEM_PKA_STRONGEST_ACIDIC>
15.423153738885823

> <JCHEM_PKA_STRONGEST_BASIC>
-4.683859277658999

> <JCHEM_POLAR_SURFACE_AREA>
72.63000000000001

> <JCHEM_REFRACTIVITY>
52.12190000000001

> <JCHEM_ROTATABLE_BOND_COUNT>
2

> <JCHEM_RULE_OF_FIVE>
1

> <ALOGPS_SOLUBILITY>
1.19e+01 g/l

> <JCHEM_TRADITIONAL_IUPAC>
caroxazone

> <JCHEM_VEBER_RULE>
0

> <DRUGBANK_ID>
DB09254

> <DRUG_GROUPS>
withdrawn

> <GENERIC_NAME>
Caroxazone

> <INTERNATIONAL_BRANDS>
Surodil; Timostenil

$$$$

  Mrv1718011021711452D          

 25 23  0  0  0  0            999 V2000
   -4.4075    0.0000    0.0000 Sr  0  2  0  0  0  0  0  0  0  0  0  0
   -2.7590    0.0000    0.0000 Sr  0  2  0  0  0  0  0  0  0  0  0  0
   -0.6699    0.9873    0.0000 O   0  0  0  0  0  0  0  0  0  0  0  0
   -0.5024    0.1851    0.0000 C   0  0  0  0  0  0  0  0  0  0  0  0
   -1.1107   -0.3702    0.0000 O   0  5  0  0  0  0  0  0  0  0  0  0
    0.2820   -0.0704    0.0000 C   0  0  0  0  0  0  0  0  0  0  0  0
    0.8902    0.4760    0.0000 N   0  0  0  0  0  0  0  0  0  0  0  0
    0.7228    1.2870    0.0000 C   0  0  0  0  0  0  0  0  0  0  0  0
    1.3310    1.8334    0.0000 C   0  0  0  0  0  0  0  0  0  0  0  0
    2.1156    1.5867    0.0000 O   0  0  0  0  0  0  0  0  0  0  0  0
    1.1635    2.6445    0.0000 O   0  5  0  0  0  0  0  0  0  0  0  0
    1.6749    0.2292    0.0000 C   0  0  0  0  0  0  0  0  0  0  0  0
    1.9305   -0.5553    0.0000 C   0  0  0  0  0  0  0  0  0  0  0  0
    1.4456   -1.2252    0.0000 C   0  0  0  0  0  0  0  0  0  0  0  0
    0.9609   -1.8864    0.0000 N   0  0  0  0  0  0  0  0  0  0  0  0
    2.7590   -0.5553    0.0000 C   0  0  0  0  0  0  0  0  0  0  0  0
    3.2350   -1.2252    0.0000 C   0  0  0  0  0  0  0  0  0  0  0  0
    2.9001   -1.9745    0.0000 C   0  0  0  0  0  0  0  0  0  0  0  0
    2.0803   -2.0627    0.0000 O   0  0  0  0  0  0  0  0  0  0  0  0
    3.3849   -2.6445    0.0000 O   0  5  0  0  0  0  0  0  0  0  0  0
    3.0147    0.2292    0.0000 C   0  0  0  0  0  0  0  0  0  0  0  0
    3.7992    0.4760    0.0000 C   0  0  0  0  0  0  0  0  0  0  0  0
    4.4075   -0.0704    0.0000 O   0  0  0  0  0  0  0  0  0  0  0  0
    3.9667    1.2870    0.0000 O   0  5  0  0  0  0  0  0  0  0  0  0
    2.3448    0.7140    0.0000 S   0  0  0  0  0  0  0  0  0  0  0  0
  3  4  2  0  0  0  0
  4  5  1  0  0  0  0
  4  6  1  0  0  0  0
  6  7  1  0  0  0  0
  7  8  1  0  0  0  0
  7 12  1  0  0  0  0
  8  9  1  0  0  0  0
  9 10  2  0  0  0  0
  9 11  1  0  0  0  0
 12 13  2  0  0  0  0
 12 25  1  0  0  0  0
 13 14  1  0  0  0  0
 13 16  1  0  0  0  0
 14 15  3  0  0  0  0
 16 17  1  0  0  0  0
 16 21  2  0  0  0  0
 17 18  1  0  0  0  0
 18 19  2  0  0  0  0
 18 20  1  0  0  0  0
 21 22  1  0  0  0  0
 21 25  1  0  0  0  0
 22 23  2  0  0  0  0
 22 24  1  0  0  0  0
M  CHG  6   1   2   2   2   5  -1  11  -1  20  -1  24  -1
M  END
> <DATABASE_ID>
DB09267

> <DATABASE_NAME>
drugbank

> <SMILES>
[Sr++].[Sr++].[O-]C(=O)CN(CC([O-])=O)C1=C(C#N)C(CC([O-])=O)=C(S1)C([O-])=O

> <INCHI_IDENTIFIER>
InChI=1S/C12H10N2O8S.2Sr/c13-2-6-5(1-7(15)16)10(12(21)22)23-11(6)14(3-8(17)18)4-9(19)20;;/h1,3-4H2,(H,15,16)(H,17,18)(H,19,20)(H,21,22);;/q;2*+2/p-4

> <INCHI_KEY>
XXUZFRDUEGQHOV-UHFFFAOYSA-J

> <FORMULA>
C12H6N2O8SSr2

> <MOLECULAR_WEIGHT>
513.49

> <EXACT_MASS>
513.795712

> <JCHEM_ACCEPTOR_COUNT>
10

> <JCHEM_ATOM_COUNT>
31

> <JCHEM_AVERAGE_POLARIZABILITY>
27.910533977475247

> <JCHEM_BIOAVAILABILITY>
1

> <JCHEM_DONOR_COUNT>
0

> <JCHEM_FORMAL_CHARGE>
0

> <JCHEM_GHOSE_FILTER>
0

> <JCHEM_IUPAC>
distrontium(2+) ion 5-[bis(carboxylatomethyl)amino]-3-(carboxylatomethyl)-4-cyanothiophene-2-carboxylate

> <ALOGPS_LOGP>
1.91

> <JCHEM_LOGP>
0.2675610216666668

> <ALOGPS_LOGS>
-2.46

> <JCHEM_MDDR_LIKE_RULE>
0

> <JCHEM_NUMBER_OF_RINGS>
1

> <JCHEM_PHYSIOLOGICAL_CHARGE>
-4

> <JCHEM_PKA>
2.177086850145455

> <JCHEM_PKA_STRONGEST_ACIDIC>
1.6347814788102912

> <JCHEM_POLAR_SURFACE_AREA>
187.54999999999998

> <JCHEM_REFRACTIVITY>
116.3394

> <JCHEM_ROTATABLE_BOND_COUNT>
8

> <JCHEM_RULE_OF_FIVE>
0

> <ALOGPS_SOLUBILITY>
2.17e+00 g/l

> <JCHEM_TRADITIONAL_IUPAC>
distrontium(2+) ion 5-[bis(carboxylatomethyl)amino]-3-(carboxylatomethyl)-4-cyanothiophene-2-carboxylate

> <JCHEM_VEBER_RULE>
0

> <DRUGBANK_ID>
DB09267

> <DRUG_GROUPS>
approved; withdrawn

> <GENERIC_NAME>
Strontium ranelate

> <PRODUCTS>
Osseor; Protelos

$$$$

  Mrv1572004111620042D          

 19 19  0  0  0  0            999 V2000
    2.5006   -2.4750    0.0000 C   0  0  0  0  0  0  0  0  0  0  0  0
    1.0717   -2.4750    0.0000 C   0  0  0  0  0  0  0  0  0  0  0  0
   -0.3572    1.6500    0.0000 C   0  0  0  0  0  0  0  0  0  0  0  0
   -1.0717    1.2375    0.0000 C   0  0  0  0  0  0  0  0  0  0  0  0
    1.7861    1.2375    0.0000 C   0  0  0  0  0  0  0  0  0  0  0  0
    1.7861   -1.2375    0.0000 C   0  0  0  0  0  0  0  0  0  0  0  0
    0.3572    1.2375    0.0000 C   0  0  0  0  0  0  0  0  0  0  0  0
    1.0717    1.6500    0.0000 C   0  0  0  0  0  0  0  0  0  0  0  0
    1.7861    0.4125    0.0000 C   0  0  0  0  0  0  0  0  0  0  0  0
   -1.7861    1.6500    0.0000 C   0  0  0  0  0  0  0  0  0  0  0  0
    0.3572    0.4125    0.0000 C   0  0  0  0  0  0  0  0  0  0  0  0
    1.0717    0.0000    0.0000 C   0  0  0  0  0  0  0  0  0  0  0  0
    1.0717    2.4750    0.0000 I   0  0  0  0  0  0  0  0  0  0  0  0
    2.5006    0.0000    0.0000 I   0  0  0  0  0  0  0  0  0  0  0  0
   -0.3572    0.0000    0.0000 I   0  0  0  0  0  0  0  0  0  0  0  0
    1.0717   -0.8250    0.0000 N   0  0  0  0  0  0  0  0  0  0  0  0
    1.7861   -2.0625    0.0000 N   0  0  0  0  0  0  0  0  0  0  0  0
   -2.5006    1.2375    0.0000 O   0  0  0  0  0  0  0  0  0  0  0  0
   -1.7861    2.4750    0.0000 O   0  0  0  0  0  0  0  0  0  0  0  0
  4  3  1  0  0  0  0
  7  3  1  0  0  0  0
  8  5  2  0  0  0  0
  8  7  1  0  0  0  0
  9  5  1  0  0  0  0
 10  4  1  0  0  0  0
 11  7  2  0  0  0  0
 12  9  2  0  0  0  0
 12 11  1  0  0  0  0
 13  8  1  0  0  0  0
 14  9  1  0  0  0  0
 15 11  1  0  0  0  0
 16  6  2  0  0  0  0
 16 12  1  4  0  0  0
 17  1  1  0  0  0  0
 17  2  1  0  0  0  0
 17  6  1  0  0  0  0
 18 10  2  0  0  0  0
 19 10  1  0  0  0  0
M  END
> <DATABASE_ID>
DB09333

> <DATABASE_NAME>
drugbank

> <SMILES>
CN(C)C=NC1=C(I)C=C(I)C(CCC(O)=O)=C1I

> <INCHI_IDENTIFIER>
InChI=1S/C12H13I3N2O2/c1-17(2)6-16-12-9(14)5-8(13)7(11(12)15)3-4-10(18)19/h5-6H,3-4H2,1-2H3,(H,18,19)

> <INCHI_KEY>
YQNFBOJPTAXAKV-UHFFFAOYSA-N

> <FORMULA>
C12H13I3N2O2

> <MOLECULAR_WEIGHT>
597.961

> <EXACT_MASS>
597.81111

> <JCHEM_ACCEPTOR_COUNT>
4

> <JCHEM_ATOM_COUNT>
32

> <JCHEM_AVERAGE_POLARIZABILITY>
40.232829260324706

> <JCHEM_BIOAVAILABILITY>
1

> <JCHEM_DONOR_COUNT>
1

> <JCHEM_FORMAL_CHARGE>
0

> <JCHEM_GHOSE_FILTER>
0

> <JCHEM_IUPAC>
3-(3-{[(dimethylamino)methylidene]amino}-2,4,6-triiodophenyl)propanoic acid

> <ALOGPS_LOGP>
3.59

> <JCHEM_LOGP>
3.4028894464952644

> <ALOGPS_LOGS>
-4.86

> <JCHEM_MDDR_LIKE_RULE>
0

> <JCHEM_NUMBER_OF_RINGS>
1

> <JCHEM_PHYSIOLOGICAL_CHARGE>
-1

> <JCHEM_PKA_STRONGEST_ACIDIC>
1.9857010540379192

> <JCHEM_PKA_STRONGEST_BASIC>
4.155761856904471

> <JCHEM_POLAR_SURFACE_AREA>
52.900000000000006

> <JCHEM_REFRACTIVITY>
104.90850000000002

> <JCHEM_ROTATABLE_BOND_COUNT>
4

> <JCHEM_RULE_OF_FIVE>
0

> <ALOGPS_SOLUBILITY>
8.19e-03 g/l

> <JCHEM_TRADITIONAL_IUPAC>
ipodate sodium

> <JCHEM_VEBER_RULE>
0

> <DRUGBANK_ID>
DB09333

> <DRUG_GROUPS>
approved; investigational; withdrawn

> <GENERIC_NAME>
Iopodic acid

> <SYNONYMS>
Ipodate

> <PRODUCTS>
Oragrafin Sodium 0.5gm

> <SALTS>
Ipodate calcium; Ipodate sodium

$$$$

  Mrv1572011261518572D          

 42 46  0  0  0  0            999 V2000
    3.1252    0.7886    0.0000 C   0  0  0  0  0  0  0  0  0  0  0  0
    3.8386    0.3906    0.0000 N   0  0  0  0  0  0  0  0  0  0  0  0
   -0.3833    0.4052    0.0000 C   0  0  1  0  0  0  0  0  0  0  0  0
   -0.1261   -0.3955    0.0000 C   0  0  2  0  0  0  0  0  0  0  0  0
   -0.9948   -0.2645    0.0000 C   0  0  2  0  0  0  0  0  0  0  0  0
    3.1252    1.6427    0.0000 C   0  0  0  0  0  0  0  0  0  0  0  0
    4.5665    1.6427    0.0000 C   0  0  0  0  0  0  0  0  0  0  0  0
    2.3973    0.3906    0.0000 N   0  0  0  0  0  0  0  0  0  0  0  0
    0.9269    0.3906    0.0000 N   0  0  0  0  0  0  0  0  0  0  0  0
    3.8386    2.0552    0.0000 C   0  0  0  0  0  0  0  0  0  0  0  0
    4.5665    0.7886    0.0000 C   0  0  0  0  0  0  0  0  0  0  0  0
    1.6403    0.7886    0.0000 C   0  0  0  0  0  0  0  0  0  0  0  0
   -1.7372   -0.6817    0.0000 N   0  0  0  0  0  0  0  0  0  0  0  0
    0.2717    0.8710    0.0000 C   0  0  0  0  0  0  0  0  0  0  0  0
    0.6891   -0.3955    0.0000 C   0  0  0  0  0  0  0  0  0  0  0  0
    3.8386   -0.4682    0.0000 C   0  0  0  0  0  0  0  0  0  0  0  0
    2.3973    2.0552    0.0000 C   0  0  0  0  0  0  0  0  0  0  0  0
   -2.4409   -0.2645    0.0000 C   0  0  0  0  0  0  0  0  0  0  0  0
    5.2945    2.0552    0.0000 C   0  0  0  0  0  0  0  0  0  0  0  0
    1.6403    1.6427    0.0000 C   0  0  0  0  0  0  0  0  0  0  0  0
   -4.6053   -0.6817    0.0000 C   0  0  0  0  0  0  0  0  0  0  0  0
   -3.8919   -0.2645    0.0000 N   0  0  0  0  0  0  0  0  0  0  0  0
    4.5083   -0.8759    0.0000 C   0  0  0  0  0  0  0  0  0  0  0  0
   -3.1543   -0.6817    0.0000 C   0  0  1  0  0  0  0  0  0  0  0  0
    4.5083   -1.7009    0.0000 C   0  0  0  0  0  0  0  0  0  0  0  0
    3.1252   -0.8759    0.0000 C   0  0  0  0  0  0  0  0  0  0  0  0
    3.8386    2.9141    0.0000 O   0  0  0  0  0  0  0  0  0  0  0  0
   -2.4409    0.5557    0.0000 O   0  0  0  0  0  0  0  0  0  0  0  0
   -4.6053   -1.4874    0.0000 O   0  0  0  0  0  0  0  0  0  0  0  0
    5.2945    2.8850    0.0000 O   0  0  0  0  0  0  0  0  0  0  0  0
   -5.2751   -0.2645    0.0000 C   0  0  1  0  0  0  0  0  0  0  0  0
    3.8386   -2.0940    0.0000 C   0  0  0  0  0  0  0  0  0  0  0  0
    0.9269    2.0552    0.0000 F   0  0  0  0  0  0  0  0  0  0  0  0
    5.2217   -0.4682    0.0000 F   0  0  0  0  0  0  0  0  0  0  0  0
    6.0029    1.6427    0.0000 O   0  0  0  0  0  0  0  0  0  0  0  0
    3.1252   -1.7009    0.0000 C   0  0  0  0  0  0  0  0  0  0  0  0
   -6.0029   -0.6817    0.0000 N   0  0  0  0  0  0  0  0  0  0  0  0
    3.8386   -2.9141    0.0000 F   0  0  0  0  0  0  0  0  0  0  0  0
   -3.1543   -1.4874    0.0000 C   0  0  0  0  0  0  0  0  0  0  0  0
   -5.2751    0.5557    0.0000 C   0  0  0  0  0  0  0  0  0  0  0  0
   -0.6308    1.1768    0.0000 H   0  0  0  0  0  0  0  0  0  0  0  0
    0.0922   -1.1525    0.0000 H   0  0  0  0  0  0  0  0  0  0  0  0
  2  1  1  0  0  0  0
  3 14  1  0  0  0  0
  4 15  1  0  0  0  0
  5  3  1  0  0  0  0
  6  1  2  0  0  0  0
  7 10  1  0  0  0  0
  8  1  1  0  0  0  0
  9 12  1  0  0  0  0
 10  6  1  0  0  0  0
 11  2  1  0  0  0  0
 12  8  2  0  0  0  0
  5 13  1  6  0  0  0
 14  9  1  0  0  0  0
 15  9  1  0  0  0  0
 16  2  1  0  0  0  0
 17  6  1  0  0  0  0
 18 13  1  0  0  0  0
 19  7  1  0  0  0  0
 20 17  2  0  0  0  0
 21 22  1  0  0  0  0
 22 24  1  0  0  0  0
 23 16  1  0  0  0  0
 24 18  1  0  0  0  0
 25 23  2  0  0  0  0
 26 16  2  0  0  0  0
 27 10  2  0  0  0  0
 28 18  2  0  0  0  0
 29 21  2  0  0  0  0
 30 19  2  0  0  0  0
 31 21  1  0  0  0  0
 32 36  2  0  0  0  0
 33 20  1  0  0  0  0
 34 23  1  0  0  0  0
 35 19  1  0  0  0  0
 36 26  1  0  0  0  0
 37 31  1  0  0  0  0
 38 32  1  0  0  0  0
 24 39  1  6  0  0  0
 31 40  1  1  0  0  0
  3 41  1  6  0  0  0
  4 42  1  6  0  0  0
 11  7  2  0  0  0  0
 12 20  1  0  0  0  0
 25 32  1  0  0  0  0
  3  4  1  0  0  0  0
  4  5  1  0  0  0  0
M  END
> <DATABASE_ID>
DB09335

> <DATABASE_NAME>
drugbank

> <SMILES>
[H][C@@]12CN(C[C@]1([H])[C@H]2NC(=O)[C@H](C)NC(=O)[C@H](C)N)C1=NC2=C(C=C1F)C(=O)C(=CN2C1=CC=C(F)C=C1F)C(O)=O

> <INCHI_IDENTIFIER>
InChI=1S/C26H25F3N6O5/c1-10(30)24(37)31-11(2)25(38)32-20-14-7-34(8-15(14)20)23-18(29)6-13-21(36)16(26(39)40)9-35(22(13)33-23)19-4-3-12(27)5-17(19)28/h3-6,9-11,14-15,20H,7-8,30H2,1-2H3,(H,31,37)(H,32,38)(H,39,40)/t10-,11-,14-,15+,20+/m0/s1

> <INCHI_KEY>
UUZPPAMZDFLUHD-VUJLHGSVSA-N

> <FORMULA>
C26H25F3N6O5

> <MOLECULAR_WEIGHT>
558.518

> <EXACT_MASS>
558.183852418

> <JCHEM_ACCEPTOR_COUNT>
9

> <JCHEM_ATOM_COUNT>
65

> <JCHEM_AVERAGE_POLARIZABILITY>
52.83698321385687

> <JCHEM_BIOAVAILABILITY>
1

> <JCHEM_DONOR_COUNT>
4

> <JCHEM_FORMAL_CHARGE>
0

> <JCHEM_GHOSE_FILTER>
0

> <JCHEM_IUPAC>
7-[(1R,5S,6S)-6-[(2S)-2-[(2S)-2-aminopropanamido]propanamido]-3-azabicyclo[3.1.0]hexan-3-yl]-1-(2,4-difluorophenyl)-6-fluoro-4-oxo-1,4-dihydro-1,8-naphthyridine-3-carboxylic acid

> <ALOGPS_LOGP>
0.65

> <JCHEM_LOGP>
-0.833638064992216

> <ALOGPS_LOGS>
-4.16

> <JCHEM_MDDR_LIKE_RULE>
1

> <JCHEM_NUMBER_OF_RINGS>
5

> <JCHEM_PHYSIOLOGICAL_CHARGE>
0

> <JCHEM_PKA>
11.740319517567093

> <JCHEM_PKA_STRONGEST_ACIDIC>
5.412070246191823

> <JCHEM_PKA_STRONGEST_BASIC>
8.088238453315315

> <JCHEM_POLAR_SURFACE_AREA>
157.96

> <JCHEM_REFRACTIVITY>
135.63519999999997

> <JCHEM_ROTATABLE_BOND_COUNT>
7

> <JCHEM_RULE_OF_FIVE>
0

> <ALOGPS_SOLUBILITY>
3.88e-02 g/l

> <JCHEM_TRADITIONAL_IUPAC>
7-[(1R,5S,6S)-6-[(2S)-2-[(2S)-2-aminopropanamido]propanamido]-3-azabicyclo[3.1.0]hexan-3-yl]-1-(2,4-difluorophenyl)-6-fluoro-4-oxo-1,8-naphthyridine-3-carboxylic acid

> <JCHEM_VEBER_RULE>
0

> <DRUGBANK_ID>
DB09335

> <DRUG_GROUPS>
approved; withdrawn

> <GENERIC_NAME>
Alatrofloxacin

> <PRODUCTS>
Trovan I.V.

> <SALTS>
Alatrofloxacin mesylate

$$$$

  Mrv1572011271516432D          

 16 16  0  0  0  0            999 V2000
   -0.3705    0.7982    0.0000 C   0  0  0  0  0  0  0  0  0  0  0  0
    0.3398    0.3934    0.0000 C   0  0  0  0  0  0  0  0  0  0  0  0
    0.3246   -0.4315    0.0000 C   0  0  0  0  0  0  0  0  0  0  0  0
   -1.0834    0.3729    0.0000 C   0  0  0  0  0  0  0  0  0  0  0  0
   -0.3705   -0.8745    0.0000 C   0  0  0  0  0  0  0  0  0  0  0  0
   -1.0834   -0.4544    0.0000 C   0  0  0  0  0  0  0  0  0  0  0  0
   -0.3705    1.6231    0.0000 C   0  0  0  0  0  0  0  0  0  0  0  0
    1.1088   -0.8185    0.0000 N   0  0  0  0  0  0  0  0  0  0  0  0
    1.1088   -1.5976    0.0000 C   0  0  0  0  0  0  0  0  0  0  0  0
   -1.0834    2.0280    0.0000 O   0  0  0  0  0  0  0  0  0  0  0  0
    1.0706    0.7982    0.0000 I   0  0  0  0  0  0  0  0  0  0  0  0
    0.3934   -2.0280    0.0000 O   0  0  0  0  0  0  0  0  0  0  0  0
   -1.8370    0.7982    0.0000 I   0  0  0  0  0  0  0  0  0  0  0  0
   -0.3705   -1.6995    0.0000 I   0  0  0  0  0  0  0  0  0  0  0  0
    0.3398    2.0280    0.0000 O   0  0  0  0  0  0  0  0  0  0  0  0
    1.8370   -1.9720    0.0000 C   0  0  0  0  0  0  0  0  0  0  0  0
  2  1  1  0  0  0  0
  3  2  2  0  0  0  0
  4  1  2  0  0  0  0
  5  6  2  0  0  0  0
  6  4  1  0  0  0  0
  7  1  1  0  0  0  0
  8  3  1  0  0  0  0
  9  8  1  0  0  0  0
 10  7  2  0  0  0  0
 11  2  1  0  0  0  0
 12  9  2  0  0  0  0
 13  4  1  0  0  0  0
 14  5  1  0  0  0  0
 15  7  1  0  0  0  0
 16  9  1  0  0  0  0
  3  5  1  0  0  0  0
M  END
> <DATABASE_ID>
DB09347

> <DATABASE_NAME>
drugbank

> <SMILES>
CC(=O)NC1=C(I)C(C(O)=O)=C(I)C=C1I

> <INCHI_IDENTIFIER>
InChI=1S/C9H6I3NO3/c1-3(14)13-8-5(11)2-4(10)6(7(8)12)9(15)16/h2H,1H3,(H,13,14)(H,15,16)

> <INCHI_KEY>
GNOGSFBXBWBTIG-UHFFFAOYSA-N

> <FORMULA>
C9H6I3NO3

> <MOLECULAR_WEIGHT>
556.864

> <EXACT_MASS>
556.74818

> <JCHEM_ACCEPTOR_COUNT>
3

> <JCHEM_ATOM_COUNT>
22

> <JCHEM_AVERAGE_POLARIZABILITY>
33.43255047111906

> <JCHEM_BIOAVAILABILITY>
1

> <JCHEM_DONOR_COUNT>
2

> <JCHEM_FORMAL_CHARGE>
0

> <JCHEM_GHOSE_FILTER>
0

> <JCHEM_IUPAC>
3-acetamido-2,4,6-triiodobenzoic acid

> <ALOGPS_LOGP>
3.03

> <JCHEM_LOGP>
3.655372526333333

> <ALOGPS_LOGS>
-4.00

> <JCHEM_MDDR_LIKE_RULE>
0

> <JCHEM_NUMBER_OF_RINGS>
1

> <JCHEM_PHYSIOLOGICAL_CHARGE>
-1

> <JCHEM_PKA>
12.284889338151194

> <JCHEM_PKA_STRONGEST_ACIDIC>
2.3266389031747585

> <JCHEM_PKA_STRONGEST_BASIC>
-4.530555343812342

> <JCHEM_POLAR_SURFACE_AREA>
66.4

> <JCHEM_REFRACTIVITY>
88.26470000000002

> <JCHEM_ROTATABLE_BOND_COUNT>
2

> <JCHEM_RULE_OF_FIVE>
0

> <ALOGPS_SOLUBILITY>
5.59e-02 g/l

> <JCHEM_TRADITIONAL_IUPAC>
acetrizoic acid

> <JCHEM_VEBER_RULE>
0

> <DRUGBANK_ID>
DB09347

> <DRUG_GROUPS>
withdrawn

> <GENERIC_NAME>
Acetrizoic acid

> <SYNONYMS>
Acide acetrizoique; Urokonic acid

> <SALTS>
Acetrizoate sodium

$$$$

  Mrv1572011271518022D          

  5  5  0  0  0  0            999 V2000
   -0.4124   -0.5834    0.0000 C   0  0  0  0  0  0  0  0  0  0  0  0
   -0.9958    0.0000    0.0000 C   0  0  0  0  0  0  0  0  0  0  0  0
   -0.4124    0.5834    0.0000 O   0  0  0  0  0  0  0  0  0  0  0  0
    0.1709    0.0000    0.0000 C   0  0  0  0  0  0  0  0  0  0  0  0
    0.9958    0.0000    0.0000 O   0  0  0  0  0  0  0  0  0  0  0  0
  1  2  1  0  0  0  0
  1  4  1  0  0  0  0
  3  4  1  0  0  0  0
  2  3  1  0  0  0  0
  4  5  2  0  0  0  0
M  END
> <DATABASE_ID>
DB09348

> <DATABASE_NAME>
drugbank

> <SMILES>
O=C1CCO1

> <INCHI_IDENTIFIER>
InChI=1S/C3H4O2/c4-3-1-2-5-3/h1-2H2

> <INCHI_KEY>
VEZXCJBBBCKRPI-UHFFFAOYSA-N

> <FORMULA>
C3H4O2

> <MOLECULAR_WEIGHT>
72.063

> <EXACT_MASS>
72.021129369

> <JCHEM_ACCEPTOR_COUNT>
1

> <JCHEM_ATOM_COUNT>
9

> <JCHEM_AVERAGE_POLARIZABILITY>
6.5457433799020786

> <JCHEM_BIOAVAILABILITY>
1

> <JCHEM_DONOR_COUNT>
0

> <JCHEM_FORMAL_CHARGE>
0

> <JCHEM_GHOSE_FILTER>
0

> <JCHEM_IUPAC>
oxetan-2-one

> <ALOGPS_LOGP>
-0.55

> <JCHEM_LOGP>
-0.13910989933333343

> <ALOGPS_LOGS>
0.78

> <JCHEM_MDDR_LIKE_RULE>
0

> <JCHEM_NUMBER_OF_RINGS>
1

> <JCHEM_PHYSIOLOGICAL_CHARGE>
0

> <JCHEM_PKA_STRONGEST_BASIC>
-7.059542213312479

> <JCHEM_POLAR_SURFACE_AREA>
26.3

> <JCHEM_REFRACTIVITY>
15.553099999999999

> <JCHEM_ROTATABLE_BOND_COUNT>
0

> <JCHEM_RULE_OF_FIVE>
1

> <ALOGPS_SOLUBILITY>
4.36e+02 g/l

> <JCHEM_TRADITIONAL_IUPAC>
β propiolactone

> <JCHEM_VEBER_RULE>
1

> <DRUGBANK_ID>
DB09348

> <DRUG_GROUPS>
approved; withdrawn

> <GENERIC_NAME>
Propiolactone

> <SYNONYMS>
1,3-propiolactone; 3-propanolide; beta-Propiolactone; betapron; Propiolactona; Propiolactone; β-propiolactone

$$$$

  Mrv1718004231811592D          

 14 14  0  0  0  0            999 V2000
   -0.3561    0.4141    0.0000 C   0  0  0  0  0  0  0  0  0  0  0  0
   -1.0683   -0.0023    0.0000 C   0  0  0  0  0  0  0  0  0  0  0  0
   -0.3610    1.2426    0.0000 O   0  0  0  0  0  0  0  0  0  0  0  0
   -1.0683   -0.8308    0.0000 C   0  0  0  0  0  0  0  0  0  0  0  0
   -1.7805    0.4141    0.0000 C   0  0  0  0  0  0  0  0  0  0  0  0
   -2.4927   -0.8308    0.0000 C   0  0  0  0  0  0  0  0  0  0  0  0
    0.3559    0.0072    0.0000 O   0  0  0  0  0  0  0  0  0  0  0  0
   -3.2049   -1.2426    0.0000 N   0  0  0  0  0  0  0  0  0  0  0  0
   -1.7805   -1.2426    0.0000 C   0  0  0  0  0  0  0  0  0  0  0  0
   -2.4927   -0.0023    0.0000 C   0  0  0  0  0  0  0  0  0  0  0  0
    1.0682    0.4190    0.0000 C   0  0  0  0  0  0  0  0  0  0  0  0
    1.7804    0.0072    0.0000 C   0  0  0  0  0  0  0  0  0  0  0  0
    2.4926    0.4287    0.0000 C   0  0  0  0  0  0  0  0  0  0  0  0
    3.2049    0.0121    0.0000 C   0  0  0  0  0  0  0  0  0  0  0  0
  2  1  1  0  0  0  0
  3  1  2  0  0  0  0
  4  2  1  0  0  0  0
  5  2  2  0  0  0  0
  6 10  2  0  0  0  0
  7  1  1  0  0  0  0
  8  6  1  0  0  0  0
  9  4  2  0  0  0  0
 10  5  1  0  0  0  0
 11  7  1  0  0  0  0
 12 11  1  0  0  0  0
 13 12  1  0  0  0  0
 14 13  1  0  0  0  0
  9  6  1  0  0  0  0
M  END
> <DATABASE_ID>
DB11148

> <DATABASE_NAME>
drugbank

> <SMILES>
CCCCOC(=O)C1=CC=C(N)C=C1

> <INCHI_IDENTIFIER>
InChI=1S/C11H15NO2/c1-2-3-8-14-11(13)9-4-6-10(12)7-5-9/h4-7H,2-3,8,12H2,1H3

> <INCHI_KEY>
IUWVALYLNVXWKX-UHFFFAOYSA-N

> <FORMULA>
C11H15NO2

> <MOLECULAR_WEIGHT>
193.246

> <EXACT_MASS>
193.110278727

> <JCHEM_ACCEPTOR_COUNT>
2

> <JCHEM_ATOM_COUNT>
29

> <JCHEM_AVERAGE_POLARIZABILITY>
21.963313915935288

> <JCHEM_BIOAVAILABILITY>
1

> <JCHEM_DONOR_COUNT>
1

> <JCHEM_FORMAL_CHARGE>
0

> <JCHEM_GHOSE_FILTER>
1

> <JCHEM_IUPAC>
butyl 4-aminobenzoate

> <ALOGPS_LOGP>
2.88

> <JCHEM_LOGP>
2.471695840666667

> <ALOGPS_LOGS>
-2.76

> <JCHEM_MDDR_LIKE_RULE>
0

> <JCHEM_NUMBER_OF_RINGS>
1

> <JCHEM_PHYSIOLOGICAL_CHARGE>
0

> <JCHEM_PKA_STRONGEST_BASIC>
2.7610947055773134

> <JCHEM_POLAR_SURFACE_AREA>
52.32

> <JCHEM_REFRACTIVITY>
56.657300000000006

> <JCHEM_ROTATABLE_BOND_COUNT>
5

> <JCHEM_RULE_OF_FIVE>
1

> <ALOGPS_SOLUBILITY>
3.36e-01 g/l

> <JCHEM_TRADITIONAL_IUPAC>
butamben

> <JCHEM_VEBER_RULE>
0

> <DRUGBANK_ID>
DB11148

> <DRUG_GROUPS>
approved; withdrawn

> <GENERIC_NAME>
Butamben

> <SYNONYMS>
Butamben; Butyl aminobenzoate

> <PRODUCTS>
Cetacaine Anesthetic; Cetacaine Liquid; Cetacaine Spray; Cetacaine Topical Anesthetic; Exactacain Topical Anesthetic; One Touch Advanced Topical Anesthetic Bubble Gum; One Touch Advanced Topical Anesthetic Cherry; One Touch Advanced Topical Anesthetic Gel Cool Mint; One Touch Advanced Topical Anesthetic Strawberry Ice

> <SALTS>
Butamben picrate

$$$$

  Mrv1572001111621172D          

 26 28  0  0  0  0            999 V2000
    1.1256    0.6202    0.0000 C   0  0  2  0  0  0  0  0  0  0  0  0
    1.1256   -0.2048    0.0000 N   0  0  0  0  0  0  0  0  0  0  0  0
    1.8403   -0.6173    0.0000 C   0  0  0  0  0  0  0  0  0  0  0  0
    2.5549   -0.2048    0.0000 C   0  0  0  0  0  0  0  0  0  0  0  0
    2.5549    0.6202    0.0000 C   0  0  0  0  0  0  0  0  0  0  0  0
    1.8403    1.0328    0.0000 S   0  0  0  0  0  0  0  0  0  0  0  0
    0.3005    0.6202    0.0000 C   0  0  1  0  0  0  0  0  0  0  0  0
    0.3005   -0.2048    0.0000 C   0  0  0  0  0  0  0  0  0  0  0  0
   -0.4138    1.0328    0.0000 N   0  0  0  0  0  0  0  0  0  0  0  0
   -1.1285    0.6202    0.0000 C   0  0  0  0  0  0  0  0  0  0  0  0
   -1.1285   -0.2048    0.0000 O   0  0  0  0  0  0  0  0  0  0  0  0
   -0.4138   -0.6173    0.0000 O   0  0  0  0  0  0  0  0  0  0  0  0
   -1.8430    1.0328    0.0000 C   0  0  1  0  0  0  0  0  0  0  0  0
    3.2804   -0.6238    0.0000 O   0  0  0  0  0  0  0  0  0  0  0  0
    1.8403   -1.4423    0.0000 C   0  0  0  0  0  0  0  0  0  0  0  0
    1.1157   -1.8606    0.0000 O   0  0  0  0  0  0  0  0  0  0  0  0
    2.5448   -1.8491    0.0000 O   0  0  0  0  0  0  0  0  0  0  0  0
   -2.5691    0.6134    0.0000 C   0  0  0  0  0  0  0  0  0  0  0  0
   -3.2829    1.0254    0.0000 C   0  0  0  0  0  0  0  0  0  0  0  0
   -3.9966    0.6134    0.0000 C   0  0  0  0  0  0  0  0  0  0  0  0
   -3.9966   -0.2105    0.0000 C   0  0  0  0  0  0  0  0  0  0  0  0
   -3.2829   -0.6227    0.0000 C   0  0  0  0  0  0  0  0  0  0  0  0
   -2.5691   -0.2105    0.0000 C   0  0  0  0  0  0  0  0  0  0  0  0
   -1.8430    1.8606    0.0000 N   0  0  0  0  0  0  0  0  0  0  0  0
    1.1256    1.4462    0.0000 H   0  0  0  0  0  0  0  0  0  0  0  0
    3.9966   -0.2104    0.0000 C   0  0  0  0  0  0  0  0  0  0  0  0
  1  2  1  0  0  0  0
  2  3  1  0  0  0  0
  3  4  2  0  0  0  0
  4  5  1  0  0  0  0
  5  6  1  0  0  0  0
  1  6  1  0  0  0  0
  1  7  1  0  0  0  0
  7  8  1  0  0  0  0
  2  8  1  0  0  0  0
  7  9  1  1  0  0  0
  9 10  1  0  0  0  0
 10 11  2  0  0  0  0
  8 12  2  0  0  0  0
 10 13  1  0  0  0  0
  4 14  1  0  0  0  0
  3 15  1  0  0  0  0
 15 16  2  0  0  0  0
 15 17  1  0  0  0  0
 13 18  1  0  0  0  0
 18 19  1  0  0  0  0
 19 20  1  0  0  0  0
 20 21  2  0  0  0  0
 21 22  1  0  0  0  0
 22 23  1  0  0  0  0
 18 23  2  0  0  0  0
 13 24  1  1  0  0  0
  1 25  1  6  0  0  0
 14 26  1  0  0  0  0
M  END
> <DATABASE_ID>
DB11367

> <DATABASE_NAME>
drugbank

> <SMILES>
[H][C@]12SCC(OC)=C(N1C(=O)[C@H]2NC(=O)[C@H](N)C1=CCC=CC1)C(O)=O

> <INCHI_IDENTIFIER>
InChI=1S/C16H19N3O5S/c1-24-9-7-25-15-11(14(21)19(15)12(9)16(22)23)18-13(20)10(17)8-5-3-2-4-6-8/h2-3,6,10-11,15H,4-5,7,17H2,1H3,(H,18,20)(H,22,23)/t10-,11-,15-/m1/s1

> <INCHI_KEY>
RDMOROXKXONCAL-UEKVPHQBSA-N

> <FORMULA>
C16H19N3O5S

> <MOLECULAR_WEIGHT>
365.4

> <EXACT_MASS>
365.104541898

> <JCHEM_ACCEPTOR_COUNT>
6

> <JCHEM_ATOM_COUNT>
44

> <JCHEM_AVERAGE_POLARIZABILITY>
36.500549110267606

> <JCHEM_BIOAVAILABILITY>
1

> <JCHEM_DONOR_COUNT>
3

> <JCHEM_FORMAL_CHARGE>
0

> <JCHEM_GHOSE_FILTER>
0

> <JCHEM_IUPAC>
(6R,7R)-7-[(2R)-2-amino-2-(cyclohexa-1,4-dien-1-yl)acetamido]-3-methoxy-8-oxo-5-thia-1-azabicyclo[4.2.0]oct-2-ene-2-carboxylic acid

> <ALOGPS_LOGP>
0.65

> <JCHEM_LOGP>
-3.4026069177214344

> <ALOGPS_LOGS>
-2.57

> <JCHEM_MDDR_LIKE_RULE>
0

> <JCHEM_NUMBER_OF_RINGS>
3

> <JCHEM_PHYSIOLOGICAL_CHARGE>
0

> <JCHEM_PKA>
11.904232215595593

> <JCHEM_PKA_STRONGEST_ACIDIC>
3.2757511229672196

> <JCHEM_PKA_STRONGEST_BASIC>
7.59538309735072

> <JCHEM_POLAR_SURFACE_AREA>
121.96000000000001

> <JCHEM_REFRACTIVITY>
94.51110000000003

> <JCHEM_ROTATABLE_BOND_COUNT>
5

> <JCHEM_RULE_OF_FIVE>
1

> <ALOGPS_SOLUBILITY>
9.87e-01 g/l

> <JCHEM_TRADITIONAL_IUPAC>
cefroxadine

> <JCHEM_VEBER_RULE>
0

> <DRUGBANK_ID>
DB11367

> <DRUG_GROUPS>
withdrawn

> <GENERIC_NAME>
Cefroxadine

> <SYNONYMS>
Cefroxadine; cefroxadino

> <INTERNATIONAL_BRANDS>
Oraspor

$$$$

  Mrv0541 05061311122D          

 28 31  0  0  0  0            999 V2000
    3.5724   -1.2375    0.0000 C   0  0  0  0  0  0  0  0  0  0  0  0
    2.1434   -1.2375    0.0000 C   0  0  0  0  0  0  0  0  0  0  0  0
    3.5724   -0.4125    0.0000 C   0  0  0  0  0  0  0  0  0  0  0  0
    2.1434   -0.4125    0.0000 C   0  0  0  0  0  0  0  0  0  0  0  0
   -0.7145   -0.4125    0.0000 C   0  0  0  0  0  0  0  0  0  0  0  0
   -1.4289    0.8250    0.0000 C   0  0  0  0  0  0  0  0  0  0  0  0
    0.0000    0.0000    0.0000 C   0  0  0  0  0  0  0  0  0  0  0  0
   -0.7145    1.2375    0.0000 C   0  0  0  0  0  0  0  0  0  0  0  0
    1.4289    2.4750    0.0000 C   0  0  0  0  0  0  0  0  0  0  0  0
    1.4289    0.8250    0.0000 C   0  0  0  0  0  0  0  0  0  0  0  0
    3.5724    1.2375    0.0000 C   0  0  0  0  0  0  0  0  0  0  0  0
    2.8579   -1.6500    0.0000 C   0  0  0  0  0  0  0  0  0  0  0  0
    2.8579    0.0000    0.0000 C   0  0  0  0  0  0  0  0  0  0  0  0
    2.1434    2.0625    0.0000 C   0  0  0  0  0  0  0  0  0  0  0  0
    3.5724    2.0625    0.0000 C   0  0  0  0  0  0  0  0  0  0  0  0
    0.7145    2.0625    0.0000 C   0  0  0  0  0  0  0  0  0  0  0  0
    2.1434    1.2375    0.0000 C   0  0  0  0  0  0  0  0  0  0  0  0
    0.7145    1.2375    0.0000 C   0  0  0  0  0  0  0  0  0  0  0  0
    2.8579    2.4750    0.0000 C   0  0  0  0  0  0  0  0  0  0  0  0
    4.2868    2.4750    0.0000 C   0  0  0  0  0  0  0  0  0  0  0  0
    2.8579   -2.4750    0.0000 F   0  0  0  0  0  0  0  0  0  0  0  0
    0.0000    2.4750    0.0000 F   0  0  0  0  0  0  0  0  0  0  0  0
   -1.4289    0.0000    0.0000 N   0  0  0  0  0  0  0  0  0  0  0  0
    0.0000    0.8250    0.0000 N   0  0  0  0  0  0  0  0  0  0  0  0
    2.8579    0.8250    0.0000 N   0  0  0  0  0  0  0  0  0  0  0  0
    2.8579    3.3000    0.0000 O   0  0  0  0  0  0  0  0  0  0  0  0
    4.2868    3.3000    0.0000 O   0  0  0  0  0  0  0  0  0  0  0  0
    5.0013    2.0625    0.0000 O   0  0  0  0  0  0  0  0  0  0  0  0
  3  1  1  0  0  0  0
  4  2  2  0  0  0  0
  7  5  1  0  0  0  0
  8  6  1  0  0  0  0
 12  1  2  0  0  0  0
 12  2  1  0  0  0  0
 13  3  2  0  0  0  0
 13  4  1  0  0  0  0
 14  9  2  0  0  0  0
 15 11  2  0  0  0  0
 16  9  1  0  0  0  0
 17 10  2  0  0  0  0
 17 14  1  0  0  0  0
 18 10  1  0  0  0  0
 18 16  2  0  0  0  0
 19 14  1  0  0  0  0
 19 15  1  0  0  0  0
 20 15  1  0  0  0  0
 21 12  1  0  0  0  0
 22 16  1  0  0  0  0
 23  5  1  0  0  0  0
 23  6  1  0  0  0  0
 24  7  1  0  0  0  0
 24  8  1  0  0  0  0
 24 18  1  0  0  0  0
 25 11  1  0  0  0  0
 25 13  1  0  0  0  0
 25 17  1  0  0  0  0
 26 19  2  0  0  0  0
 27 20  2  0  0  0  0
 28 20  1  0  0  0  0
M  END
> <DATABASE_ID>
DB11491

> <DATABASE_NAME>
drugbank

> <SMILES>
OC(=O)C1=CN(C2=CC=C(F)C=C2)C2=CC(N3CCNCC3)=C(F)C=C2C1=O

> <INCHI_IDENTIFIER>
InChI=1S/C20H17F2N3O3/c21-12-1-3-13(4-2-12)25-11-15(20(27)28)19(26)14-9-16(22)18(10-17(14)25)24-7-5-23-6-8-24/h1-4,9-11,23H,5-8H2,(H,27,28)

> <INCHI_KEY>
XBHBWNFJWIASRO-UHFFFAOYSA-N

> <FORMULA>
C20H17F2N3O3

> <MOLECULAR_WEIGHT>
385.3641

> <EXACT_MASS>
385.123797835

> <JCHEM_ACCEPTOR_COUNT>
6

> <JCHEM_AVERAGE_POLARIZABILITY>
37.15136988495837

> <JCHEM_BIOAVAILABILITY>
1

> <JCHEM_DONOR_COUNT>
2

> <JCHEM_FORMAL_CHARGE>
0

> <JCHEM_GHOSE_FILTER>
1

> <JCHEM_IUPAC>
6-fluoro-1-(4-fluorophenyl)-4-oxo-7-(piperazin-1-yl)-1,4-dihydroquinoline-3-carboxylic acid

> <ALOGPS_LOGP>
0.29

> <JCHEM_LOGP>
0.5644399522790208

> <ALOGPS_LOGS>
-3.56

> <JCHEM_MDDR_LIKE_RULE>
0

> <JCHEM_NUMBER_OF_RINGS>
4

> <JCHEM_PHYSIOLOGICAL_CHARGE>
0

> <JCHEM_PKA_STRONGEST_ACIDIC>
5.739511618379093

> <JCHEM_PKA_STRONGEST_BASIC>
8.67628873768534

> <JCHEM_POLAR_SURFACE_AREA>
72.88

> <JCHEM_REFRACTIVITY>
99.89889999999997

> <JCHEM_ROTATABLE_BOND_COUNT>
3

> <JCHEM_RULE_OF_FIVE>
1

> <ALOGPS_SOLUBILITY>
1.05e-01 g/l

> <JCHEM_TRADITIONAL_IUPAC>
sarafloxacin

> <JCHEM_VEBER_RULE>
0

> <DRUGBANK_ID>
DB11491

> <DRUG_GROUPS>
vet_approved; withdrawn

> <GENERIC_NAME>
Sarafloxacin

> <SALTS>
Sarafloxacin hydrochloride

$$$$

  Mrv1909 01152019102D          

 40 42  0  0  0  0            999 V2000
    1.0717   -2.7536    0.0000 C   0  0  1  0  0  0  0  0  0  0  0  0
    1.0717   -3.5786    0.0000 C   0  0  1  0  0  0  0  0  0  0  0  0
   -0.3572   -2.7536    0.0000 O   0  0  0  0  0  0  0  0  0  0  0  0
    0.3572   -2.3411    0.0000 C   0  0  1  0  0  0  0  0  0  0  0  0
    0.3572   -3.9911    0.0000 C   0  0  2  0  0  0  0  0  0  0  0  0
   -0.3572   -3.5786    0.0000 C   0  0  2  0  0  0  0  0  0  0  0  0
   -1.5797   -0.6187    0.0000 C   0  0  2  0  0  0  0  0  0  0  0  0
   -2.4047   -0.6187    0.0000 C   0  0  0  0  0  0  0  0  0  0  0  0
   -1.0948    0.0487    0.0000 O   0  0  0  0  0  0  0  0  0  0  0  0
   -0.3101   -0.2062    0.0000 C   0  0  2  0  0  0  0  0  0  0  0  0
   -0.3101   -1.0312    0.0000 C   0  0  2  0  0  0  0  0  0  0  0  0
    0.3572    0.2786    0.0000 O   0  0  0  0  0  0  0  0  0  0  0  0
    1.0717    2.3411    0.0000 C   0  0  1  0  0  0  0  0  0  0  0  0
    1.7861    2.7536    0.0000 O   0  0  0  0  0  0  0  0  0  0  0  0
    0.3572    1.1036    0.0000 C   0  0  2  0  0  0  0  0  0  0  0  0
   -0.3572    2.3411    0.0000 C   0  0  1  0  0  0  0  0  0  0  0  0
   -1.0716    2.7536    0.0000 O   0  0  0  0  0  0  0  0  0  0  0  0
   -0.3572    1.5161    0.0000 C   0  0  2  0  0  0  0  0  0  0  0  0
    0.3572    2.7536    0.0000 C   0  0  1  0  0  0  0  0  0  0  0  0
    1.0717    1.5161    0.0000 C   0  0  2  0  0  0  0  0  0  0  0  0
    1.7861    1.1036    0.0000 O   0  0  0  0  0  0  0  0  0  0  0  0
   -1.0716    1.1036    0.0000 N   0  0  0  0  0  0  0  0  0  0  0  0
   -2.5006    1.1036    0.0000 N   0  0  0  0  0  0  0  0  0  0  0  0
   -1.7861    1.5161    0.0000 C   0  0  0  0  0  0  0  0  0  0  0  0
   -1.7861    2.3411    0.0000 N   0  0  0  0  0  0  0  0  0  0  0  0
    0.3572   -1.5161    0.0000 O   0  0  0  0  0  0  0  0  0  0  0  0
    0.3572   -4.8161    0.0000 O   0  0  0  0  0  0  0  0  0  0  0  0
    1.7861   -3.9911    0.0000 O   0  0  0  0  0  0  0  0  0  0  0  0
   -1.0716   -3.9911    0.0000 C   0  0  0  0  0  0  0  0  0  0  0  0
   -1.7861   -3.5786    0.0000 O   0  0  0  0  0  0  0  0  0  0  0  0
    2.5006   -2.7536    0.0000 C   0  0  0  0  0  0  0  0  0  0  0  0
    1.7861   -2.3411    0.0000 N   0  0  0  0  0  0  0  0  0  0  0  0
    0.3572    3.5786    0.0000 N   0  0  0  0  0  0  0  0  0  0  0  0
    1.7861    3.5786    0.0000 N   0  0  0  0  0  0  0  0  0  0  0  0
    1.0717    3.9911    0.0000 C   0  0  0  0  0  0  0  0  0  0  0  0
    1.0717    4.8161    0.0000 N   0  0  0  0  0  0  0  0  0  0  0  0
   -1.5073   -2.0006    0.0000 C   0  0  0  0  0  0  0  0  0  0  0  0
   -2.3323   -2.0006    0.0000 O   0  0  0  0  0  0  0  0  0  0  0  0
   -1.0948   -1.2861    0.0000 C   0  0  1  0  0  0  0  0  0  0  0  0
   -0.8812   -2.0830    0.0000 O   0  0  0  0  0  0  0  0  0  0  0  0
  1 32  1  1  0  0  0
  2  1  1  0  0  0  0
  2 28  1  6  0  0  0
  3  4  1  0  0  0  0
  1  4  1  0  0  0  0
  4 26  1  1  0  0  0
  5  2  1  0  0  0  0
  5 27  1  1  0  0  0
  6  5  1  0  0  0  0
  3  6  1  0  0  0  0
  6 29  1  6  0  0  0
  9  7  1  0  0  0  0
  7 39  1  0  0  0  0
  7  8  1  6  0  0  0
  9 10  1  0  0  0  0
 11 10  1  0  0  0  0
 10 12  1  1  0  0  0
 39 11  1  0  0  0  0
 11 26  1  6  0  0  0
 15 12  1  6  0  0  0
 19 13  1  0  0  0  0
 20 13  1  0  0  0  0
 13 14  1  6  0  0  0
 18 15  1  0  0  0  0
 15 20  1  0  0  0  0
 19 16  1  0  0  0  0
 16 18  1  0  0  0  0
 16 17  1  6  0  0  0
 18 22  1  1  0  0  0
 19 33  1  1  0  0  0
 20 21  1  1  0  0  0
 22 24  1  0  0  0  0
 24 23  1  0  0  0  0
 24 25  2  0  0  0  0
 29 30  1  0  0  0  0
 32 31  1  0  0  0  0
 35 33  1  0  0  0  0
 34 35  1  0  0  0  0
 35 36  2  0  0  0  0
 39 37  1  1  0  0  0
 37 38  1  0  0  0  0
 39 40  1  0  0  0  0
M  END
> <DATABASE_ID>
DB11512

> <DATABASE_NAME>
drugbank

> <SMILES>
CN[C@H]1[C@H](O)[C@@H](O)[C@H](CO)O[C@H]1O[C@H]1[C@H](O[C@H]2[C@H](O)[C@@H](O)[C@H](NC(N)=N)[C@@H](O)[C@@H]2NC(N)=N)O[C@@H](C)[C@]1(O)CO

> <INCHI_IDENTIFIER>
InChI=1S/C21H41N7O12/c1-5-21(36,4-30)16(40-17-9(26-2)13(34)10(31)6(3-29)38-17)18(37-5)39-15-8(28-20(24)25)11(32)7(27-19(22)23)12(33)14(15)35/h5-18,26,29-36H,3-4H2,1-2H3,(H4,22,23,27)(H4,24,25,28)/t5-,6-,7+,8-,9-,10-,11+,12-,13-,14+,15+,16-,17-,18-,21+/m0/s1

> <INCHI_KEY>
ASXBYYWOLISCLQ-HZYVHMACSA-N

> <FORMULA>
C21H41N7O12

> <MOLECULAR_WEIGHT>
583.596

> <EXACT_MASS>
583.281319788

> <JCHEM_ACCEPTOR_COUNT>
19

> <JCHEM_ATOM_COUNT>
81

> <JCHEM_AVERAGE_NEUTRAL_MICROSPECIES_CHARGE>
2.925707682129069

> <JCHEM_AVERAGE_POLARIZABILITY>
56.66441231156106

> <JCHEM_BIOAVAILABILITY>
0

> <JCHEM_DONOR_COUNT>
15

> <JCHEM_FORMAL_CHARGE>
0

> <JCHEM_GHOSE_FILTER>
0

> <JCHEM_IUPAC>
N-[(1S,2R,3R,4S,5R,6R)-3-carbamimidamido-6-{[(2R,3R,4R,5S)-3-{[(2S,3S,4S,5R,6S)-4,5-dihydroxy-6-(hydroxymethyl)-3-(methylamino)oxan-2-yl]oxy}-4-hydroxy-4-(hydroxymethyl)-5-methyloxolan-2-yl]oxy}-2,4,5-trihydroxycyclohexyl]guanidine

> <ALOGPS_LOGP>
-3.02

> <JCHEM_LOGP>
-7.349804055213099

> <ALOGPS_LOGS>
-1.56

> <JCHEM_MDDR_LIKE_RULE>
1

> <JCHEM_NEUTRAL_CHARGE>
3

> <JCHEM_NUMBER_OF_RINGS>
3

> <JCHEM_PHYSIOLOGICAL_CHARGE>
3

> <JCHEM_PKA_STRONGEST_ACIDIC>
12.106282431456165

> <JCHEM_PKA_STRONGEST_BASIC>
11.30815817921976

> <JCHEM_POLAR_SURFACE_AREA>
334.59000000000003

> <JCHEM_REFRACTIVITY>
150.4536

> <JCHEM_ROTATABLE_BOND_COUNT>
9

> <JCHEM_RULE_OF_FIVE>
0

> <ALOGPS_SOLUBILITY>
1.60e+01 g/l

> <JCHEM_TRADITIONAL_IUPAC>
[(2R,3S,4R,5R)-3,4-dihydroxy-5-(4-hydroxy-5-methyl-2-oxopyrimidin-1-yl)oxolan-2-yl]methoxyphosphonic acid

> <JCHEM_VEBER_RULE>
0

> <DRUGBANK_ID>
DB11512

> <DRUG_GROUPS>
approved; investigational; vet_approved; withdrawn

> <GENERIC_NAME>
Dihydrostreptomycin

> <SYNONYMS>
DHMS; Dihidroestreptomicina; Dihydrostreptomycin; Dihydrostreptomycine; Dihydrostreptomycinum; DST; N,N'''-[(1R,2R,3S,4R,5R,6S)-4-({5-deoxy-2-O-[2-deoxy-2-(methylamino)-a-L-glucopyranosyl]-3-C-(hydroxymethyl)-a-L-lyxofuranosyl}oxy)-2,5,6-trihydroxycyclohexane-1,3-diyl]diguanidine; N,N'''-[(1R,2R,3S,4R,5R,6S)-4-({5-deoxy-2-O-[2-deoxy-2-(methylamino)-alpha-L-glucopyranosyl]-3-C-(hydroxymethyl)-alpha-L-lyxofuranosyl}oxy)-2,5,6-trihydroxycyclohexane-1,3-diyl]diguanidine; N,N'''-[(1R,2R,3S,4R,5R,6S)-4-({5-deoxy-2-O-[2-deoxy-2-(methylamino)-α-L-glucopyranosyl]-3-C-(hydroxymethyl)-α-L-lyxofuranosyl}oxy)-2,5,6-trihydroxycyclohexane-1,3-diyl]diguanidine

> <INTERNATIONAL_BRANDS>
Panstreptin

> <SALTS>
Dihydrostreptomycin sulfate

$$$$

  Mrv1718004131810302D          

 51 55  0  0  0  0            999 V2000
   -4.4295   -3.3442    0.0000 C   0  0  0  0  0  0  0  0  0  0  0  0
   -3.8461   -2.7608    0.0000 C   0  0  0  0  0  0  0  0  0  0  0  0
   -4.4295   -2.1774    0.0000 C   0  0  0  0  0  0  0  0  0  0  0  0
   -3.4336   -2.0463    0.0000 C   0  0  0  0  0  0  0  0  0  0  0  0
   -3.1316   -3.1733    0.0000 O   0  0  0  0  0  0  0  0  0  0  0  0
   -2.4172   -2.7608    0.0000 C   0  0  0  0  0  0  0  0  0  0  0  0
   -2.4172   -1.9358    0.0000 O   0  0  0  0  0  0  0  0  0  0  0  0
   -1.7027   -3.1733    0.0000 N   0  0  0  0  0  0  0  0  0  0  0  0
   -1.1193   -2.5899    0.0000 C   0  0  1  0  0  0  0  0  0  0  0  0
   -0.3223   -2.8035    0.0000 C   0  0  0  0  0  0  0  0  0  0  0  0
   -0.3223   -3.6285    0.0000 C   0  0  0  0  0  0  0  0  0  0  0  0
    0.2609   -2.2201    0.0000 C   0  0  0  0  0  0  0  0  0  0  0  0
    0.4745   -3.0170    0.0000 C   0  0  0  0  0  0  0  0  0  0  0  0
   -1.1193   -1.7649    0.0000 C   0  0  0  0  0  0  0  0  0  0  0  0
   -1.5318   -1.0505    0.0000 O   0  0  0  0  0  0  0  0  0  0  0  0
   -0.5360   -1.1816    0.0000 N   0  0  0  0  0  0  0  0  0  0  0  0
    0.1911   -0.0621    0.0000 C   0  0  0  0  0  0  0  0  0  0  0  0
   -0.5790   -0.3577    0.0000 C   0  0  1  0  0  0  0  0  0  0  0  0
    0.2609   -1.3951    0.0000 C   0  0  0  0  0  0  0  0  0  0  0  0
    0.7102   -0.7032    0.0000 C   0  0  2  0  0  0  0  0  0  0  0  0
    1.4247   -1.1157    0.0000 O   0  0  0  0  0  0  0  0  0  0  0  0
    2.1392   -0.7032    0.0000 C   0  0  0  0  0  0  0  0  0  0  0  0
    3.5194   -0.3334    0.0000 C   0  0  0  0  0  0  0  0  0  0  0  0
    3.3059    0.4634    0.0000 C   0  0  0  0  0  0  0  0  0  0  0  0
    2.5090    0.6770    0.0000 C   0  0  0  0  0  0  0  0  0  0  0  0
    1.9256    0.0936    0.0000 N   0  0  0  0  0  0  0  0  0  0  0  0
    2.9361   -0.9167    0.0000 C   0  0  0  0  0  0  0  0  0  0  0  0
    3.1496   -1.7136    0.0000 C   0  0  0  0  0  0  0  0  0  0  0  0
    3.9465   -1.9272    0.0000 C   0  0  0  0  0  0  0  0  0  0  0  0
    4.5298   -1.3438    0.0000 C   0  0  0  0  0  0  0  0  0  0  0  0
    4.3162   -0.5469    0.0000 C   0  0  0  0  0  0  0  0  0  0  0  0
    3.8893    1.0468    0.0000 O   0  0  0  0  0  0  0  0  0  0  0  0
   -1.2936    0.0547    0.0000 C   0  0  0  0  0  0  0  0  0  0  0  0
   -1.2936    0.8797    0.0000 O   0  0  0  0  0  0  0  0  0  0  0  0
   -2.0080   -0.3577    0.0000 N   0  0  0  0  0  0  0  0  0  0  0  0
   -2.7224    0.0547    0.0000 C   0  0  1  0  0  0  0  0  0  0  0  0
   -3.3059   -0.5286    0.0000 C   0  0  1  0  0  0  0  0  0  0  0  0
   -3.5194    0.2682    0.0000 C   0  0  0  0  0  0  0  0  0  0  0  0
   -4.1028   -0.7421    0.0000 C   0  0  0  0  0  0  0  0  0  0  0  0
   -4.6862   -0.1588    0.0000 C   0  0  0  0  0  0  0  0  0  0  0  0
   -2.7224    0.8797    0.0000 C   0  0  0  0  0  0  0  0  0  0  0  0
   -2.3099    1.5941    0.0000 N   0  0  0  0  0  0  0  0  0  0  0  0
   -3.4370    1.2922    0.0000 O   0  0  0  0  0  0  0  0  0  0  0  0
   -2.3099    2.4191    0.0000 S   0  0  0  0  0  0  0  0  0  0  0  0
   -3.1349    2.4191    0.0000 O   0  0  0  0  0  0  0  0  0  0  0  0
   -2.8934    3.0025    0.0000 O   0  0  0  0  0  0  0  0  0  0  0  0
   -1.5955    2.8316    0.0000 C   0  0  0  0  0  0  0  0  0  0  0  0
   -1.3820    3.6285    0.0000 C   0  0  0  0  0  0  0  0  0  0  0  0
   -0.9695    2.9140    0.0000 C   0  0  0  0  0  0  0  0  0  0  0  0
    4.1822   -2.7227    0.0000 Cl  0  0  0  0  0  0  0  0  0  0  0  0
    4.6862    1.2603    0.0000 C   0  0  0  0  0  0  0  0  0  0  0  0
  1  2  1  0  0  0  0
  2  3  1  0  0  0  0
  2  4  1  0  0  0  0
  2  5  1  0  0  0  0
  5  6  1  0  0  0  0
  6  7  2  0  0  0  0
  6  8  1  0  0  0  0
  9  8  1  6  0  0  0
 10 11  1  0  0  0  0
 10 12  1  0  0  0  0
 10 13  1  0  0  0  0
  9 14  1  0  0  0  0
 14 15  2  0  0  0  0
 14 16  1  0  0  0  0
 18 16  1  0  0  0  0
 16 19  1  0  0  0  0
 17 18  1  0  0  0  0
 17 20  1  0  0  0  0
 19 20  1  0  0  0  0
 21 22  1  0  0  0  0
 26 22  2  0  0  0  0
 22 27  1  0  0  0  0
 23 24  1  0  0  0  0
 23 27  2  0  0  0  0
 23 31  1  0  0  0  0
 24 25  2  0  0  0  0
 25 26  1  0  0  0  0
 27 28  1  0  0  0  0
 28 29  2  0  0  0  0
 29 30  1  0  0  0  0
 30 31  2  0  0  0  0
 24 32  1  0  0  0  0
 18 33  1  6  0  0  0
 33 34  2  0  0  0  0
 33 35  1  0  0  0  0
 36 37  1  0  0  0  0
 37 38  1  0  0  0  0
 36 38  1  0  0  0  0
 39 40  2  0  0  0  0
 41 42  1  0  0  0  0
 41 43  2  0  0  0  0
 42 44  1  0  0  0  0
 44 45  2  0  0  0  0
 44 46  2  0  0  0  0
 44 47  1  0  0  0  0
 47 48  1  0  0  0  0
 48 49  1  0  0  0  0
 47 49  1  0  0  0  0
 29 50  1  0  0  0  0
 36 35  1  1  0  0  0
 20 21  1  1  0  0  0
 36 41  1  0  0  0  0
 37 39  1  6  0  0  0
  9 10  1  0  0  0  0
 32 51  1  0  0  0  0
M  END
> <DATABASE_ID>
DB11586

> <DATABASE_NAME>
drugbank

> <SMILES>
COC1=CN=C(O[C@@H]2C[C@H](N(C2)C(=O)[C@@H](NC(=O)OC(C)(C)C)C(C)(C)C)C(=O)N[C@@]2(C[C@H]2C=C)C(=O)NS(=O)(=O)C2CC2)C2=C1C=CC(Cl)=C2

> <INCHI_IDENTIFIER>
InChI=1S/C35H46ClN5O9S/c1-9-19-16-35(19,31(44)40-51(46,47)22-11-12-22)39-28(42)25-15-21(49-29-24-14-20(36)10-13-23(24)26(48-8)17-37-29)18-41(25)30(43)27(33(2,3)4)38-32(45)50-34(5,6)7/h9-10,13-14,17,19,21-22,25,27H,1,11-12,15-16,18H2,2-8H3,(H,38,45)(H,39,42)(H,40,44)/t19-,21-,25+,27-,35-/m1/s1

> <INCHI_KEY>
XRWSZZJLZRKHHD-WVWIJVSJSA-N

> <FORMULA>
C35H46ClN5O9S

> <MOLECULAR_WEIGHT>
748.286

> <EXACT_MASS>
747.270476492

> <JCHEM_ACCEPTOR_COUNT>
9

> <JCHEM_ATOM_COUNT>
97

> <JCHEM_AVERAGE_POLARIZABILITY>
76.13958400655055

> <JCHEM_BIOAVAILABILITY>
0

> <JCHEM_DONOR_COUNT>
3

> <JCHEM_FORMAL_CHARGE>
0

> <JCHEM_GHOSE_FILTER>
0

> <JCHEM_IUPAC>
tert-butyl N-[(2S)-1-[(2S,4R)-4-[(7-chloro-4-methoxyisoquinolin-1-yl)oxy]-2-{[(1R,2S)-1-[(cyclopropanesulfonyl)carbamoyl]-2-ethenylcyclopropyl]carbamoyl}pyrrolidin-1-yl]-3,3-dimethyl-1-oxobutan-2-yl]carbamate

> <ALOGPS_LOGP>
3.12

> <JCHEM_LOGP>
3.366020221675183

> <ALOGPS_LOGS>
-5.40

> <JCHEM_MDDR_LIKE_RULE>
1

> <JCHEM_NUMBER_OF_RINGS>
5

> <JCHEM_PHYSIOLOGICAL_CHARGE>
-1

> <JCHEM_PKA>
11.594674473080884

> <JCHEM_PKA_STRONGEST_ACIDIC>
3.774570285097288

> <JCHEM_PKA_STRONGEST_BASIC>
1.8469783852535222

> <JCHEM_POLAR_SURFACE_AREA>
182.32999999999998

> <JCHEM_REFRACTIVITY>
186.8222

> <JCHEM_ROTATABLE_BOND_COUNT>
13

> <JCHEM_RULE_OF_FIVE>
0

> <ALOGPS_SOLUBILITY>
2.99e-03 g/l

> <JCHEM_TRADITIONAL_IUPAC>
asunaprevir

> <JCHEM_VEBER_RULE>
0

> <DRUGBANK_ID>
DB11586

> <DRUG_GROUPS>
approved; investigational; withdrawn

> <GENERIC_NAME>
Asunaprevir

> <SYNONYMS>
Asunaprevir

> <PRODUCTS>
Asunaprevir; Sunvepra

$$$$

  Mrv1572004191603532D          

 17 16  0  0  0  0            999 V2000
    0.8250   -1.6500    0.0000 C   0  0  0  0  0  0  0  0  0  0  0  0
    0.8250   -2.4750    0.0000 C   0  0  0  0  0  0  0  0  0  0  0  0
    0.8250   -0.8250    0.0000 C   0  0  0  0  0  0  0  0  0  0  0  0
    0.8250   -3.3000    0.0000 C   0  0  0  0  0  0  0  0  0  0  0  0
    0.8250    0.0000    0.0000 C   0  0  0  0  0  0  0  0  0  0  0  0
    1.6500   -1.6500    0.0000 F   0  0  0  0  0  0  0  0  0  0  0  0
    0.0000   -1.6500    0.0000 F   0  0  0  0  0  0  0  0  0  0  0  0
    1.6500   -2.4750    0.0000 F   0  0  0  0  0  0  0  0  0  0  0  0
    0.0000   -2.4750    0.0000 F   0  0  0  0  0  0  0  0  0  0  0  0
    1.6500   -0.8250    0.0000 F   0  0  0  0  0  0  0  0  0  0  0  0
    0.0000   -0.8250    0.0000 F   0  0  0  0  0  0  0  0  0  0  0  0
    0.8250   -4.1250    0.0000 F   0  0  0  0  0  0  0  0  0  0  0  0
    1.6500   -3.3000    0.0000 F   0  0  0  0  0  0  0  0  0  0  0  0
    0.0000   -3.3000    0.0000 F   0  0  0  0  0  0  0  0  0  0  0  0
    0.8250    0.8250    0.0000 F   0  0  0  0  0  0  0  0  0  0  0  0
    1.6500   -0.0000    0.0000 F   0  0  0  0  0  0  0  0  0  0  0  0
    0.0000    0.0000    0.0000 F   0  0  0  0  0  0  0  0  0  0  0  0
  2  1  1  0  0  0  0
  3  1  1  0  0  0  0
  4  2  1  0  0  0  0
  5  3  1  0  0  0  0
  6  1  1  0  0  0  0
  7  1  1  0  0  0  0
  8  2  1  0  0  0  0
  9  2  1  0  0  0  0
 10  3  1  0  0  0  0
 11  3  1  0  0  0  0
 12  4  1  0  0  0  0
 13  4  1  0  0  0  0
 14  4  1  0  0  0  0
 15  5  1  0  0  0  0
 16  5  1  0  0  0  0
 17  5  1  0  0  0  0
M  END
> <DATABASE_ID>
DB11625

> <DATABASE_NAME>
drugbank

> <SMILES>
FC(F)(F)C(F)(F)C(F)(F)C(F)(F)C(F)(F)F

> <INCHI_IDENTIFIER>
InChI=1S/C5F12/c6-1(7,2(8,9)4(12,13)14)3(10,11)5(15,16)17

> <INCHI_KEY>
NJCBUSHGCBERSK-UHFFFAOYSA-N

> <FORMULA>
C5F12

> <MOLECULAR_WEIGHT>
288.036

> <EXACT_MASS>
287.980837956

> <JCHEM_ACCEPTOR_COUNT>
0

> <JCHEM_ATOM_COUNT>
17

> <JCHEM_AVERAGE_POLARIZABILITY>
11.379949651188932

> <JCHEM_BIOAVAILABILITY>
1

> <JCHEM_DONOR_COUNT>
0

> <JCHEM_FORMAL_CHARGE>
0

> <JCHEM_GHOSE_FILTER>
0

> <JCHEM_IUPAC>
dodecafluoropentane

> <ALOGPS_LOGP>
3.28

> <JCHEM_LOGP>
4.183645560333334

> <ALOGPS_LOGS>
-3.88

> <JCHEM_MDDR_LIKE_RULE>
0

> <JCHEM_NUMBER_OF_RINGS>
0

> <JCHEM_PHYSIOLOGICAL_CHARGE>
0

> <JCHEM_POLAR_SURFACE_AREA>
0.0

> <JCHEM_REFRACTIVITY>
26.873199999999997

> <JCHEM_ROTATABLE_BOND_COUNT>
4

> <JCHEM_RULE_OF_FIVE>
1

> <ALOGPS_SOLUBILITY>
3.83e-02 g/l

> <JCHEM_TRADITIONAL_IUPAC>
perfluoropentane

> <JCHEM_VEBER_RULE>
1

> <DRUGBANK_ID>
DB11625

> <DRUG_GROUPS>
investigational; withdrawn

> <GENERIC_NAME>
Perflenapent

> <SYNONYMS>
Perflenapent

$$$$

  Mrv1652310171623502D          

 95 99  0  0  1  0            999 V2000
   -1.6204   -1.7605    0.0000 C   0  0  0  0  0  0  0  0  0  0  0  0
   -0.9059   -1.3480    0.0000 C   0  0  0  0  0  0  0  0  0  0  0  0
   -0.1914   -1.7605    0.0000 C   0  0  0  0  0  0  0  0  0  0  0  0
   -0.9059   -0.5230    0.0000 C   0  0  1  0  0  0  0  0  0  0  0  0
   -0.1914   -0.1105    0.0000 C   0  0  0  0  0  0  0  0  0  0  0  0
    0.5230   -0.5230    0.0000 O   0  0  0  0  0  0  0  0  0  0  0  0
   -0.1914    0.7145    0.0000 N   0  0  0  0  0  0  0  0  0  0  0  0
    0.5230    1.1270    0.0000 C   0  0  2  0  0  0  0  0  0  0  0  0
    0.5230    1.9520    0.0000 C   0  0  0  0  0  0  0  0  0  0  0  0
    1.2375    2.3645    0.0000 O   0  0  0  0  0  0  0  0  0  0  0  0
   -0.1914    2.3645    0.0000 N   0  0  0  0  0  0  0  0  0  0  0  0
   -0.1914    3.1895    0.0000 C   0  0  2  0  0  0  0  0  0  0  0  0
   -0.9059    3.6020    0.0000 C   0  0  0  0  0  0  0  0  0  0  0  0
   -0.9059    4.4270    0.0000 O   0  0  0  0  0  0  0  0  0  0  0  0
   -1.6204    3.1895    0.0000 N   0  0  0  0  0  0  0  0  0  0  0  0
   -2.3349    3.6020    0.0000 C   0  0  2  0  0  0  0  0  0  0  0  0
   -3.0493    3.1895    0.0000 C   0  0  0  0  0  0  0  0  0  0  0  0
   -3.7638    3.6020    0.0000 O   0  0  0  0  0  0  0  0  0  0  0  0
   -3.0493    2.3645    0.0000 N   0  0  0  0  0  0  0  0  0  0  0  0
   -3.7638    1.9520    0.0000 C   0  0  1  0  0  0  0  0  0  0  0  0
   -3.7638    1.1270    0.0000 C   0  0  0  0  0  0  0  0  0  0  0  0
   -4.4783    0.7145    0.0000 O   0  0  0  0  0  0  0  0  0  0  0  0
   -3.0493    0.7145    0.0000 N   0  0  0  0  0  0  0  0  0  0  0  0
   -3.0493   -0.1105    0.0000 C   0  0  2  0  0  0  0  0  0  0  0  0
   -2.3349   -0.5230    0.0000 C   0  0  0  0  0  0  0  0  0  0  0  0
   -2.3349   -1.3480    0.0000 O   0  0  0  0  0  0  0  0  0  0  0  0
   -1.6204   -0.1105    0.0000 N   0  0  0  0  0  0  0  0  0  0  0  0
   -3.7638   -0.5230    0.0000 C   0  0  0  0  0  0  0  0  0  0  0  0
   -3.7638   -1.3480    0.0000 C   0  0  0  0  0  0  0  0  0  0  0  0
   -4.4783   -1.7605    0.0000 C   0  0  0  0  0  0  0  0  0  0  0  0
   -4.4783   -2.5855    0.0000 C   0  0  0  0  0  0  0  0  0  0  0  0
   -5.1927   -2.9980    0.0000 N   0  0  0  0  0  0  0  0  0  0  0  0
   -4.4783    2.3645    0.0000 C   0  0  0  0  0  0  0  0  0  0  0  0
   -5.1927    1.9520    0.0000 C   0  0  0  0  0  0  0  0  0  0  0  0
   -5.2790    1.1315    0.0000 C   0  0  0  0  0  0  0  0  0  0  0  0
   -6.0859    0.9600    0.0000 N   0  0  0  0  0  0  0  0  0  0  0  0
   -6.4984    1.6744    0.0000 C   0  0  0  0  0  0  0  0  0  0  0  0
   -5.9464    2.2875    0.0000 C   0  0  0  0  0  0  0  0  0  0  0  0
   -6.2014    3.0722    0.0000 C   0  0  0  0  0  0  0  0  0  0  0  0
   -7.0083    3.2437    0.0000 C   0  0  0  0  0  0  0  0  0  0  0  0
   -7.5604    2.6306    0.0000 C   0  0  0  0  0  0  0  0  0  0  0  0
   -7.3054    1.8460    0.0000 C   0  0  0  0  0  0  0  0  0  0  0  0
   -2.3349    4.4270    0.0000 C   0  0  0  0  0  0  0  0  0  0  0  0
   -3.0493    4.8395    0.0000 C   0  0  0  0  0  0  0  0  0  0  0  0
   -3.7638    4.4270    0.0000 C   0  0  0  0  0  0  0  0  0  0  0  0
   -4.4783    4.8395    0.0000 C   0  0  0  0  0  0  0  0  0  0  0  0
   -4.4783    5.6645    0.0000 C   0  0  0  0  0  0  0  0  0  0  0  0
   -3.7638    6.0770    0.0000 C   0  0  0  0  0  0  0  0  0  0  0  0
   -3.0493    5.6645    0.0000 C   0  0  0  0  0  0  0  0  0  0  0  0
   -5.1927    6.0770    0.0000 O   0  0  0  0  0  0  0  0  0  0  0  0
    0.5230    3.6020    0.0000 C   0  0  0  0  0  0  0  0  0  0  0  0
    0.5230    4.4270    0.0000 C   0  0  0  0  0  0  0  0  0  0  0  0
   -0.1914    4.8395    0.0000 C   0  0  0  0  0  0  0  0  0  0  0  0
   -0.1914    5.6645    0.0000 C   0  0  0  0  0  0  0  0  0  0  0  0
    0.5230    6.0770    0.0000 C   0  0  0  0  0  0  0  0  0  0  0  0
    1.2375    5.6645    0.0000 C   0  0  0  0  0  0  0  0  0  0  0  0
    1.2375    4.8395    0.0000 C   0  0  0  0  0  0  0  0  0  0  0  0
   -0.9059    1.9520    0.0000 C   0  0  0  0  0  0  0  0  0  0  0  0
    1.2375    0.7145    0.0000 C   0  0  0  0  0  0  0  0  0  0  0  0
    1.9520    1.1270    0.0000 C   0  0  0  0  0  0  0  0  0  0  0  0
    2.6664    0.7145    0.0000 S   0  0  0  0  0  0  0  0  0  0  0  0
    3.3809    1.1270    0.0000 C   0  0  0  0  0  0  0  0  0  0  0  0
    4.0954    0.7145    0.0000 C   0  0  0  0  0  0  0  0  0  0  0  0
    4.0954   -0.1105    0.0000 O   0  0  0  0  0  0  0  0  0  0  0  0
    4.8099    1.1270    0.0000 N   0  0  0  0  0  0  0  0  0  0  0  0
    5.5243    0.7145    0.0000 C   0  0  0  0  0  0  0  0  0  0  0  0
    6.2388    1.1270    0.0000 C   0  0  1  0  0  0  0  0  0  0  0  0
    6.9533    0.7145    0.0000 C   0  0  0  0  0  0  0  0  0  0  0  0
    6.9533   -0.1105    0.0000 O   0  0  0  0  0  0  0  0  0  0  0  0
    7.6677    1.1270    0.0000 N   0  0  0  0  0  0  0  0  0  0  0  0
    8.3822    0.7145    0.0000 C   0  0  1  0  0  0  0  0  0  0  0  0
    8.3822   -0.1105    0.0000 C   0  0  0  0  0  0  0  0  0  0  0  0
    9.0967   -0.5230    0.0000 C   0  0  0  0  0  0  0  0  0  0  0  0
    9.0967   -1.3480    0.0000 C   0  0  0  0  0  0  0  0  0  0  0  0
    9.8112   -1.7605    0.0000 C   0  0  0  0  0  0  0  0  0  0  0  0
    9.8112   -2.5855    0.0000 N   0  0  0  0  0  0  0  0  0  0  0  0
    9.0967    1.1270    0.0000 C   0  0  0  0  0  0  0  0  0  0  0  0
    9.0967    1.9520    0.0000 O   0  0  0  0  0  0  0  0  0  0  0  0
    9.8112    0.7145    0.0000 N   0  0  0  0  0  0  0  0  0  0  0  0
   10.5256    1.1270    0.0000 C   0  0  1  0  0  0  0  0  0  0  0  0
   10.5256    1.9520    0.0000 C   0  0  0  0  0  0  0  0  0  0  0  0
   11.2401    2.3645    0.0000 S   0  0  0  0  0  0  0  0  0  0  0  0
   11.2401    0.7145    0.0000 C   0  0  0  0  0  0  0  0  0  0  0  0
   11.2401   -0.1105    0.0000 O   0  0  0  0  0  0  0  0  0  0  0  0
   11.9546    1.1270    0.0000 N   0  0  0  0  0  0  0  0  0  0  0  0
   12.6690    0.7145    0.0000 C   0  0  1  0  0  0  0  0  0  0  0  0
   13.3835    1.1270    0.0000 C   0  0  0  0  0  0  0  0  0  0  0  0
   14.0980    0.7145    0.0000 C   0  0  0  0  0  0  0  0  0  0  0  0
   14.8124    1.1270    0.0000 C   0  0  0  0  0  0  0  0  0  0  0  0
   15.5269    0.7145    0.0000 C   0  0  0  0  0  0  0  0  0  0  0  0
   16.2414    1.1270    0.0000 N   0  0  0  0  0  0  0  0  0  0  0  0
   12.6690   -0.1105    0.0000 C   0  0  0  0  0  0  0  0  0  0  0  0
   13.3835   -0.5230    0.0000 O   0  0  0  0  0  0  0  0  0  0  0  0
   11.9546   -0.5230    0.0000 N   0  0  0  0  0  0  0  0  0  0  0  0
    6.2388    1.9520    0.0000 N   0  0  0  0  0  0  0  0  0  0  0  0
  1  2  1  0  0  0  0
  2  3  1  0  0  0  0
  4  2  1  6  0  0  0
  4  5  1  0  0  0  0
  5  6  2  0  0  0  0
  5  7  1  0  0  0  0
  7  8  1  0  0  0  0
  8  9  1  0  0  0  0
  9 10  2  0  0  0  0
  9 11  1  0  0  0  0
 11 12  1  0  0  0  0
 12 13  1  0  0  0  0
 13 14  2  0  0  0  0
 13 15  1  0  0  0  0
 15 16  1  0  0  0  0
 16 17  1  0  0  0  0
 17 18  2  0  0  0  0
 17 19  1  0  0  0  0
 19 20  1  0  0  0  0
 20 21  1  0  0  0  0
 21 22  2  0  0  0  0
 21 23  1  0  0  0  0
 23 24  1  0  0  0  0
 24 25  1  0  0  0  0
 25 26  2  0  0  0  0
 25 27  1  0  0  0  0
  4 27  1  0  0  0  0
 24 28  1  6  0  0  0
 28 29  1  0  0  0  0
 29 30  1  0  0  0  0
 30 31  1  0  0  0  0
 31 32  1  0  0  0  0
 20 33  1  1  0  0  0
 33 34  1  0  0  0  0
 34 35  2  0  0  0  0
 35 36  1  0  0  0  0
 36 37  1  0  0  0  0
 37 38  1  0  0  0  0
 34 38  1  0  0  0  0
 38 39  2  0  0  0  0
 39 40  1  0  0  0  0
 40 41  2  0  0  0  0
 41 42  1  0  0  0  0
 37 42  2  0  0  0  0
 16 43  1  6  0  0  0
 43 44  1  0  0  0  0
 44 45  2  0  0  0  0
 45 46  1  0  0  0  0
 46 47  2  0  0  0  0
 47 48  1  0  0  0  0
 48 49  2  0  0  0  0
 44 49  1  0  0  0  0
 47 50  1  0  0  0  0
 12 51  1  6  0  0  0
 51 52  1  0  0  0  0
 52 53  2  0  0  0  0
 53 54  1  0  0  0  0
 54 55  2  0  0  0  0
 55 56  1  0  0  0  0
 56 57  2  0  0  0  0
 52 57  1  0  0  0  0
 11 58  1  0  0  0  0
  8 59  1  6  0  0  0
 59 60  1  0  0  0  0
 60 61  1  0  0  0  0
 61 62  1  0  0  0  0
 62 63  1  0  0  0  0
 63 64  2  0  0  0  0
 63 65  1  0  0  0  0
 65 66  1  0  0  0  0
 66 67  1  0  0  0  0
 67 68  1  0  0  0  0
 68 69  2  0  0  0  0
 68 70  1  0  0  0  0
 71 70  1  6  0  0  0
 71 72  1  0  0  0  0
 72 73  1  0  0  0  0
 73 74  1  0  0  0  0
 74 75  1  0  0  0  0
 75 76  1  0  0  0  0
 71 77  1  0  0  0  0
 77 78  2  0  0  0  0
 77 79  1  0  0  0  0
 80 79  1  1  0  0  0
 80 81  1  0  0  0  0
 81 82  1  0  0  0  0
 80 83  1  0  0  0  0
 83 84  2  0  0  0  0
 83 85  1  0  0  0  0
 86 85  1  1  0  0  0
 86 87  1  0  0  0  0
 87 88  1  0  0  0  0
 88 89  1  0  0  0  0
 89 90  1  0  0  0  0
 90 91  1  0  0  0  0
 86 92  1  0  0  0  0
 92 93  2  0  0  0  0
 92 94  1  0  0  0  0
 67 95  1  6  0  0  0
M  END
> <DATABASE_ID>
DB11628

> <DATABASE_NAME>
drugbank

> <SMILES>
CC(C)[C@@H]1NC(=O)[C@H](CCCCN)NC(=O)[C@@H](CC2=CNC3=CC=CC=C23)NC(=O)[C@H](CC2=CC=C(O)C=C2)NC(=O)[C@H](CC2=CC=CC=C2)N(C)C(=O)[C@H](CCSCC(=O)NC[C@H](N)C(=O)N[C@@H](CCCCN)C(=O)N[C@@H](CS)C(=O)N[C@@H](CCCCN)C(N)=O)NC1=O

> <INCHI_IDENTIFIER>
InChI=1S/C65H96N16O12S2/c1-38(2)55-64(92)76-49(26-30-95-37-54(83)72-35-44(69)57(85)74-47(20-10-13-28-67)58(86)79-52(36-94)62(90)73-46(56(70)84)19-9-12-27-66)65(93)81(3)53(32-39-15-5-4-6-16-39)63(91)78-50(31-40-22-24-42(82)25-23-40)60(88)77-51(33-41-34-71-45-18-8-7-17-43(41)45)61(89)75-48(59(87)80-55)21-11-14-29-68/h4-8,15-18,22-25,34,38,44,46-53,55,71,82,94H,9-14,19-21,26-33,35-37,66-69H2,1-3H3,(H2,70,84)(H,72,83)(H,73,90)(H,74,85)(H,75,89)(H,76,92)(H,77,88)(H,78,91)(H,79,86)(H,80,87)/t44-,46-,47-,48-,49-,50-,51+,52-,53-,55-/m0/s1

> <INCHI_KEY>
XXXSJQLZVNKRKX-YQRDHHIGSA-N

> <FORMULA>
C65H96N16O12S2

> <MOLECULAR_WEIGHT>
1357.7

> <EXACT_MASS>
1356.683504943

> <JCHEM_ACCEPTOR_COUNT>
16

> <JCHEM_ATOM_COUNT>
191

> <JCHEM_AVERAGE_POLARIZABILITY>
146.64751801956032

> <JCHEM_BIOAVAILABILITY>
0

> <JCHEM_DONOR_COUNT>
17

> <JCHEM_FORMAL_CHARGE>
0

> <JCHEM_GHOSE_FILTER>
0

> <JCHEM_IUPAC>
(2S)-6-amino-2-[(2R)-2-[(2S)-6-amino-2-[(2S)-2-amino-3-[2-({2-[(2S,5S,8S,11R,14S,17S)-14-(4-aminobutyl)-5-benzyl-8-[(4-hydroxyphenyl)methyl]-11-[(1H-indol-3-yl)methyl]-4-methyl-3,6,9,12,15,18-hexaoxo-17-(propan-2-yl)-1,4,7,10,13,16-hexaazacyclooctadecan-2-yl]ethyl}sulfanyl)acetamido]propanamido]hexanamido]-3-sulfanylpropanamido]hexanamide

> <ALOGPS_LOGP>
1.26

> <JCHEM_LOGP>
-3.288453031860646

> <ALOGPS_LOGS>
-5.43

> <JCHEM_MDDR_LIKE_RULE>
1

> <JCHEM_NUMBER_OF_RINGS>
5

> <JCHEM_PHYSIOLOGICAL_CHARGE>
4

> <JCHEM_PKA>
10.000141239213086

> <JCHEM_PKA_STRONGEST_ACIDIC>
9.668871355648522

> <JCHEM_PKA_STRONGEST_BASIC>
10.632480226638185

> <JCHEM_POLAR_SURFACE_AREA>
465.3999999999998

> <JCHEM_REFRACTIVITY>
361.7978999999999

> <JCHEM_ROTATABLE_BOND_COUNT>
34

> <JCHEM_RULE_OF_FIVE>
0

> <ALOGPS_SOLUBILITY>
5.02e-03 g/l

> <JCHEM_TRADITIONAL_IUPAC>
(2S)-6-amino-2-[(2R)-2-[(2S)-6-amino-2-[(2S)-2-amino-3-[2-({2-[(2S,5S,8S,11R,14S,17S)-14-(4-aminobutyl)-5-benzyl-8-[(4-hydroxyphenyl)methyl]-11-(1H-indol-3-ylmethyl)-17-isopropyl-4-methyl-3,6,9,12,15,18-hexaoxo-1,4,7,10,13,16-hexaazacyclooctadecan-2-yl]ethyl}sulfanyl)acetamido]propanamido]hexanamido]-3-sulfanylpropanamido]hexanamide

> <JCHEM_VEBER_RULE>
0

> <DRUGBANK_ID>
DB11628

> <DRUG_GROUPS>
withdrawn

> <GENERIC_NAME>
Depreotide

> <SALTS>
Depreotide trifluoroacetate

$$$$

  Mrv1652310171623502D          

 29 32  0  0  1  0            999 V2000
    4.9046    2.8984    0.0000 C   0  0  0  0  0  0  0  0  0  0  0  0
    5.6941    2.6589    0.0000 S   0  0  0  0  0  0  0  0  0  0  0  0
    6.4835    2.4195    0.0000 O   0  0  0  0  0  0  0  0  0  0  0  0
    5.9335    3.4484    0.0000 O   0  0  0  0  0  0  0  0  0  0  0  0
    5.4546    1.8694    0.0000 C   0  0  0  0  0  0  0  0  0  0  0  0
    6.0186    1.2673    0.0000 C   0  0  0  0  0  0  0  0  0  0  0  0
    5.7792    0.4778    0.0000 C   0  0  0  0  0  0  0  0  0  0  0  0
    4.9758    0.2904    0.0000 C   0  0  0  0  0  0  0  0  0  0  0  0
    4.4118    0.8925    0.0000 C   0  0  0  0  0  0  0  0  0  0  0  0
    4.6512    1.6820    0.0000 C   0  0  0  0  0  0  0  0  0  0  0  0
    3.9743    2.1537    0.0000 N   0  0  0  0  0  0  0  0  0  0  0  0
    3.3166    1.6557    0.0000 C   0  0  0  0  0  0  0  0  0  0  0  0
    3.5869    0.8763    0.0000 C   0  0  0  0  0  0  0  0  0  0  0  0
    2.9292    0.3783    0.0000 C   0  0  0  0  0  0  0  0  0  0  0  0
    2.2523    0.8500    0.0000 C   0  0  0  0  0  0  0  0  0  0  0  0
    2.4917    1.6395    0.0000 C   0  0  2  0  0  0  0  0  0  0  0  0
    1.9938    2.2972    0.0000 C   0  0  0  0  0  0  0  0  0  0  0  0
    1.1751    2.1948    0.0000 C   0  0  0  0  0  0  0  0  0  0  0  0
    0.6771    2.8526    0.0000 O   0  0  0  0  0  0  0  0  0  0  0  0
    0.8545    1.4347    0.0000 O   0  0  0  0  0  0  0  0  0  0  0  0
    3.9581    2.9785    0.0000 C   0  0  0  0  0  0  0  0  0  0  0  0
    3.2356    3.3769    0.0000 C   0  0  0  0  0  0  0  0  0  0  0  0
    2.5294    2.9504    0.0000 C   0  0  0  0  0  0  0  0  0  0  0  0
    1.8069    3.3487    0.0000 C   0  0  0  0  0  0  0  0  0  0  0  0
    1.7907    4.1735    0.0000 C   0  0  0  0  0  0  0  0  0  0  0  0
    2.4969    4.6001    0.0000 C   0  0  0  0  0  0  0  0  0  0  0  0
    3.2193    4.2017    0.0000 C   0  0  0  0  0  0  0  0  0  0  0  0
    1.0682    4.5719    0.0000 Cl  0  0  0  0  0  0  0  0  0  0  0  0
    6.3432   -0.1242    0.0000 F   0  0  0  0  0  0  0  0  0  0  0  0
  1  2  1  0  0  0  0
  2  3  2  0  0  0  0
  2  4  2  0  0  0  0
  2  5  1  0  0  0  0
  5  6  1  0  0  0  0
  6  7  2  0  0  0  0
  7  8  1  0  0  0  0
  8  9  2  0  0  0  0
  9 10  1  0  0  0  0
  5 10  2  0  0  0  0
 10 11  1  0  0  0  0
 11 12  1  0  0  0  0
 12 13  2  0  0  0  0
  9 13  1  0  0  0  0
 13 14  1  0  0  0  0
 14 15  1  0  0  0  0
 15 16  1  0  0  0  0
 12 16  1  0  0  0  0
 16 17  1  6  0  0  0
 17 18  1  0  0  0  0
 18 19  2  0  0  0  0
 18 20  1  0  0  0  0
 11 21  1  0  0  0  0
 21 22  1  0  0  0  0
 22 23  2  0  0  0  0
 23 24  1  0  0  0  0
 24 25  2  0  0  0  0
 25 26  1  0  0  0  0
 26 27  2  0  0  0  0
 22 27  1  0  0  0  0
 25 28  1  0  0  0  0
  7 29  1  0  0  0  0
M  END
> <DATABASE_ID>
DB11629

> <DATABASE_NAME>
drugbank

> <SMILES>
CS(=O)(=O)C1=C2N(CC3=CC=C(Cl)C=C3)C3=C(CC[C@@H]3CC(O)=O)C2=CC(F)=C1

> <INCHI_IDENTIFIER>
InChI=1S/C21H19ClFNO4S/c1-29(27,28)18-10-15(23)9-17-16-7-4-13(8-19(25)26)20(16)24(21(17)18)11-12-2-5-14(22)6-3-12/h2-3,5-6,9-10,13H,4,7-8,11H2,1H3,(H,25,26)/t13-/m1/s1

> <INCHI_KEY>
NXFFJDQHYLNEJK-CYBMUJFWSA-N

> <FORMULA>
C21H19ClFNO4S

> <MOLECULAR_WEIGHT>
435.89

> <EXACT_MASS>
435.0707351

> <JCHEM_ACCEPTOR_COUNT>
4

> <JCHEM_ATOM_COUNT>
48

> <JCHEM_AVERAGE_POLARIZABILITY>
42.757728630342655

> <JCHEM_BIOAVAILABILITY>
1

> <JCHEM_DONOR_COUNT>
1

> <JCHEM_FORMAL_CHARGE>
0

> <JCHEM_GHOSE_FILTER>
1

> <JCHEM_IUPAC>
2-[(3R)-4-[(4-chlorophenyl)methyl]-7-fluoro-5-methanesulfonyl-1H,2H,3H,4H-cyclopenta[b]indol-3-yl]acetic acid

> <ALOGPS_LOGP>
3.58

> <JCHEM_LOGP>
3.868291078

> <ALOGPS_LOGS>
-5.01

> <JCHEM_MDDR_LIKE_RULE>
0

> <JCHEM_NUMBER_OF_RINGS>
4

> <JCHEM_PHYSIOLOGICAL_CHARGE>
-1

> <JCHEM_PKA>
19.585211048930205

> <JCHEM_PKA_STRONGEST_ACIDIC>
3.984694403729416

> <JCHEM_POLAR_SURFACE_AREA>
76.37

> <JCHEM_REFRACTIVITY>
109.32929999999998

> <JCHEM_ROTATABLE_BOND_COUNT>
5

> <JCHEM_RULE_OF_FIVE>
1

> <ALOGPS_SOLUBILITY>
4.28e-03 g/l

> <JCHEM_TRADITIONAL_IUPAC>
laropiprant

> <JCHEM_VEBER_RULE>
0

> <DRUGBANK_ID>
DB11629

> <DRUG_GROUPS>
approved; investigational; withdrawn

> <GENERIC_NAME>
Laropiprant

$$$$

  Mrv1652310201623242D          

 24 27  0  0  0  0            999 V2000
   -0.1093    5.0230    0.0000 C   0  0  0  0  0  0  0  0  0  0  0  0
    0.7112    4.9368    0.0000 C   0  0  0  0  0  0  0  0  0  0  0  0
    1.0468    4.1831    0.0000 C   0  0  0  0  0  0  0  0  0  0  0  0
    0.5619    3.5157    0.0000 C   0  0  0  0  0  0  0  0  0  0  0  0
   -0.2586    3.6019    0.0000 C   0  0  0  0  0  0  0  0  0  0  0  0
   -0.5942    4.3556    0.0000 C   0  0  0  0  0  0  0  0  0  0  0  0
    0.8974    2.7620    0.0000 C   0  0  0  0  0  0  0  0  0  0  0  0
    0.4125    2.0945    0.0000 N   0  0  0  0  0  0  0  0  0  0  0  0
    0.6674    1.3099    0.0000 C   0  0  0  0  0  0  0  0  0  0  0  0
    1.4521    1.0550    0.0000 O   0  0  0  0  0  0  0  0  0  0  0  0
    0.0000    0.8250    0.0000 N   0  0  0  0  0  0  0  0  0  0  0  0
   -0.6674    1.3099    0.0000 S   0  0  0  0  0  0  0  0  0  0  0  0
   -0.4125    2.0945    0.0000 C   0  0  0  0  0  0  0  0  0  0  0  0
   -0.8974    2.7620    0.0000 O   0  0  0  0  0  0  0  0  0  0  0  0
    0.0000   -0.0000    0.0000 C   0  0  0  0  0  0  0  0  0  0  0  0
   -0.7145   -0.4125    0.0000 C   0  0  0  0  0  0  0  0  0  0  0  0
   -0.7145   -1.2375    0.0000 C   0  0  0  0  0  0  0  0  0  0  0  0
    0.0000   -1.6500    0.0000 C   0  0  0  0  0  0  0  0  0  0  0  0
    0.7145   -1.2375    0.0000 C   0  0  0  0  0  0  0  0  0  0  0  0
    0.7145   -0.4125    0.0000 C   0  0  0  0  0  0  0  0  0  0  0  0
    1.4289   -0.0000    0.0000 C   0  0  0  0  0  0  0  0  0  0  0  0
    2.1434   -0.4125    0.0000 C   0  0  0  0  0  0  0  0  0  0  0  0
    2.1434   -1.2375    0.0000 C   0  0  0  0  0  0  0  0  0  0  0  0
    1.4289   -1.6500    0.0000 C   0  0  0  0  0  0  0  0  0  0  0  0
  1  2  2  0  0  0  0
  2  3  1  0  0  0  0
  3  4  2  0  0  0  0
  4  5  1  0  0  0  0
  5  6  2  0  0  0  0
  1  6  1  0  0  0  0
  4  7  1  0  0  0  0
  7  8  1  0  0  0  0
  8  9  1  0  0  0  0
  9 10  2  0  0  0  0
  9 11  1  0  0  0  0
 11 12  1  0  0  0  0
 12 13  1  0  0  0  0
  8 13  1  0  0  0  0
 13 14  2  0  0  0  0
 11 15  1  0  0  0  0
 15 16  1  0  0  0  0
 16 17  2  0  0  0  0
 17 18  1  0  0  0  0
 18 19  2  0  0  0  0
 19 20  1  0  0  0  0
 15 20  2  0  0  0  0
 20 21  1  0  0  0  0
 21 22  2  0  0  0  0
 22 23  1  0  0  0  0
 23 24  2  0  0  0  0
 19 24  1  0  0  0  0
M  END
> <DATABASE_ID>
DB12129

> <DATABASE_NAME>
drugbank

> <SMILES>
O=C1SN(C(=O)N1CC1=CC=CC=C1)C1=C2C=CC=CC2=CC=C1

> <INCHI_IDENTIFIER>
InChI=1S/C19H14N2O2S/c22-18-20(13-14-7-2-1-3-8-14)19(23)24-21(18)17-12-6-10-15-9-4-5-11-16(15)17/h1-12H,13H2

> <INCHI_KEY>
PMJIHLSCWIDGMD-UHFFFAOYSA-N

> <FORMULA>
C19H14N2O2S

> <MOLECULAR_WEIGHT>
334.39

> <EXACT_MASS>
334.077598873

> <JCHEM_ACCEPTOR_COUNT>
2

> <JCHEM_ATOM_COUNT>
38

> <JCHEM_AVERAGE_POLARIZABILITY>
34.22392267820666

> <JCHEM_BIOAVAILABILITY>
1

> <JCHEM_DONOR_COUNT>
0

> <JCHEM_FORMAL_CHARGE>
0

> <JCHEM_GHOSE_FILTER>
1

> <JCHEM_IUPAC>
4-benzyl-2-(naphthalen-1-yl)-1,2,4-thiadiazolidine-3,5-dione

> <ALOGPS_LOGP>
3.44

> <JCHEM_LOGP>
4.723784541666667

> <ALOGPS_LOGS>
-4.68

> <JCHEM_MDDR_LIKE_RULE>
0

> <JCHEM_NUMBER_OF_RINGS>
4

> <JCHEM_PHYSIOLOGICAL_CHARGE>
0

> <JCHEM_POLAR_SURFACE_AREA>
40.620000000000005

> <JCHEM_REFRACTIVITY>
94.91250000000001

> <JCHEM_ROTATABLE_BOND_COUNT>
3

> <JCHEM_RULE_OF_FIVE>
1

> <ALOGPS_SOLUBILITY>
7.04e-03 g/l

> <JCHEM_TRADITIONAL_IUPAC>
4-benzyl-2-(naphthalen-1-yl)-1,2,4-thiadiazolidine-3,5-dione

> <JCHEM_VEBER_RULE>
0

> <DRUGBANK_ID>
DB12129

> <DRUG_GROUPS>
investigational; withdrawn

> <GENERIC_NAME>
Tideglusib

$$$$

  Mrv0541 09131211412D          

 22 24  0  0  0  0            999 V2000
   -0.5837    2.2374    0.0000 C   0  0  0  0  0  0  0  0  0  0  0  0
   -0.1712    1.5229    0.0000 C   0  0  0  0  0  0  0  0  0  0  0  0
    3.3523    1.1104    0.0000 C   0  0  0  0  0  0  0  0  0  0  0  0
    3.3523    1.9354    0.0000 C   0  0  0  0  0  0  0  0  0  0  0  0
    2.6378    0.6979    0.0000 C   0  0  0  0  0  0  0  0  0  0  0  0
    2.6378    2.3479    0.0000 C   0  0  0  0  0  0  0  0  0  0  0  0
   -0.1781   -0.8853    0.0000 C   0  0  0  0  0  0  0  0  0  0  0  0
   -0.4752    0.5124    0.0000 C   0  0  0  0  0  0  0  0  0  0  0  0
    0.0768   -0.1006    0.0000 C   0  0  0  0  0  0  0  0  0  0  0  0
    1.9233    1.1104    0.0000 C   0  0  0  0  0  0  0  0  0  0  0  0
   -0.9851   -1.0568    0.0000 C   0  0  0  0  0  0  0  0  0  0  0  0
   -1.2822    0.3409    0.0000 C   0  0  0  0  0  0  0  0  0  0  0  0
    0.6538    1.5229    0.0000 C   0  0  0  0  0  0  0  0  0  0  0  0
    1.9233    1.9354    0.0000 C   0  0  0  0  0  0  0  0  0  0  0  0
    1.1387    0.8555    0.0000 C   0  0  0  0  0  0  0  0  0  0  0  0
    0.8838    0.0709    0.0000 C   0  0  0  0  0  0  0  0  0  0  0  0
   -1.5371   -0.4437    0.0000 C   0  0  0  0  0  0  0  0  0  0  0  0
   -1.2400   -1.8414    0.0000 Br  0  0  0  0  0  0  0  0  0  0  0  0
   -1.8342    0.9540    0.0000 Br  0  0  0  0  0  0  0  0  0  0  0  0
    1.4358   -0.5422    0.0000 O   0  0  0  0  0  0  0  0  0  0  0  0
   -2.3441   -0.6152    0.0000 O   0  0  0  0  0  0  0  0  0  0  0  0
    1.1387    2.1904    0.0000 O   0  0  0  0  0  0  0  0  0  0  0  0
  2  1  1  0  0  0  0
  4  3  2  0  0  0  0
  5  3  1  0  0  0  0
  6  4  1  0  0  0  0
  9  7  2  0  0  0  0
  9  8  1  0  0  0  0
 10  5  2  0  0  0  0
 11  7  1  0  0  0  0
 12  8  2  0  0  0  0
 13  2  1  0  0  0  0
 14  6  2  0  0  0  0
 14 10  1  0  0  0  0
 15 10  1  0  0  0  0
 15 13  2  0  0  0  0
 16  9  1  0  0  0  0
 16 15  1  0  0  0  0
 17 11  2  0  0  0  0
 17 12  1  0  0  0  0
 18 11  1  0  0  0  0
 19 12  1  0  0  0  0
 20 16  2  0  0  0  0
 21 17  1  0  0  0  0
 22 13  1  0  0  0  0
 22 14  1  0  0  0  0
M  END
> <DATABASE_ID>
DB12319

> <DATABASE_NAME>
drugbank

> <SMILES>
CCC1=C(C(=O)C2=CC(Br)=C(O)C(Br)=C2)C2=CC=CC=C2O1

> <INCHI_IDENTIFIER>
InChI=1S/C17H12Br2O3/c1-2-13-15(10-5-3-4-6-14(10)22-13)16(20)9-7-11(18)17(21)12(19)8-9/h3-8,21H,2H2,1H3

> <INCHI_KEY>
WHQCHUCQKNIQEC-UHFFFAOYSA-N

> <FORMULA>
C17H12Br2O3

> <MOLECULAR_WEIGHT>
424.083

> <EXACT_MASS>
421.915319544

> <JCHEM_ACCEPTOR_COUNT>
2

> <JCHEM_AVERAGE_POLARIZABILITY>
35.64614561636836

> <JCHEM_BIOAVAILABILITY>
1

> <JCHEM_DONOR_COUNT>
1

> <JCHEM_FORMAL_CHARGE>
0

> <JCHEM_GHOSE_FILTER>
1

> <JCHEM_IUPAC>
2,6-dibromo-4-(2-ethyl-1-benzofuran-3-carbonyl)phenol

> <ALOGPS_LOGP>
5.52

> <JCHEM_LOGP>
5.547745900999999

> <ALOGPS_LOGS>
-4.51

> <JCHEM_MDDR_LIKE_RULE>
0

> <JCHEM_NUMBER_OF_RINGS>
3

> <JCHEM_PHYSIOLOGICAL_CHARGE>
-1

> <JCHEM_PKA_STRONGEST_ACIDIC>
5.11079144308044

> <JCHEM_PKA_STRONGEST_BASIC>
-3.842504364936835

> <JCHEM_POLAR_SURFACE_AREA>
50.44

> <JCHEM_REFRACTIVITY>
92.37480000000001

> <JCHEM_ROTATABLE_BOND_COUNT>
3

> <JCHEM_RULE_OF_FIVE>
0

> <ALOGPS_SOLUBILITY>
1.31e-02 g/l

> <JCHEM_TRADITIONAL_IUPAC>
benzbromarone

> <JCHEM_VEBER_RULE>
0

> <DRUGBANK_ID>
DB12319

> <DRUG_GROUPS>
investigational; withdrawn

> <GENERIC_NAME>
Benzbromarone

> <SYNONYMS>
2-ethyl-3-(3,5-dibrom-4-hydroxybenzoyl)benzofuran; 3,5-dibromo-4-hydroxyphenyl-2-ethyl-3-benzofuranyl ketone; Benzbromarona

> <INTERNATIONAL_BRANDS>
Uroleap

$$$$

  Mrv1572004221603002D          

 15 15  0  0  0  0            999 V2000
   -0.7145    3.7125    0.0000 C   0  0  0  0  0  0  0  0  0  0  0  0
   -0.0000    3.3000    0.0000 C   0  0  0  0  0  0  0  0  0  0  0  0
    1.4289   -0.0000    0.0000 C   0  0  0  0  0  0  0  0  0  0  0  0
    1.4289    0.8250    0.0000 C   0  0  0  0  0  0  0  0  0  0  0  0
   -0.0000    2.4750    0.0000 C   0  0  0  0  0  0  0  0  0  0  0  0
    0.0000   -0.0000    0.0000 C   0  0  0  0  0  0  0  0  0  0  0  0
    0.7145   -1.2375    0.0000 C   0  0  0  0  0  0  0  0  0  0  0  0
    0.7145   -0.4125    0.0000 C   0  0  0  0  0  0  0  0  0  0  0  0
    0.0000    0.8250    0.0000 C   0  0  0  0  0  0  0  0  0  0  0  0
    0.7145    1.2375    0.0000 C   0  0  0  0  0  0  0  0  0  0  0  0
   -0.0000   -1.6500    0.0000 C   0  0  0  0  0  0  0  0  0  0  0  0
   -0.7145    1.2375    0.0000 Cl  0  0  0  0  0  0  0  0  0  0  0  0
   -0.0000   -2.4750    0.0000 O   0  0  0  0  0  0  0  0  0  0  0  0
   -0.7145   -1.2375    0.0000 O   0  0  0  0  0  0  0  0  0  0  0  0
    0.7145    2.0625    0.0000 O   0  0  0  0  0  0  0  0  0  0  0  0
  2  1  2  0  0  0  0
  4  3  2  0  0  0  0
  5  2  1  0  0  0  0
  8  3  1  0  0  0  0
  8  6  2  0  0  0  0
  8  7  1  0  0  0  0
  9  6  1  0  0  0  0
 10  4  1  0  0  0  0
 10  9  2  0  0  0  0
 11  7  1  0  0  0  0
 12  9  1  0  0  0  0
 13 11  2  0  0  0  0
 14 11  1  0  0  0  0
 15  5  1  0  0  0  0
 15 10  1  0  0  0  0
M  END
> <DATABASE_ID>
DB13167

> <DATABASE_NAME>
drugbank

> <SMILES>
OC(=O)CC1=CC(Cl)=C(OCC=C)C=C1

> <INCHI_IDENTIFIER>
InChI=1S/C11H11ClO3/c1-2-5-15-10-4-3-8(6-9(10)12)7-11(13)14/h2-4,6H,1,5,7H2,(H,13,14)

> <INCHI_KEY>
ARHWPKZXBHOEEE-UHFFFAOYSA-N

> <FORMULA>
C11H11ClO3

> <MOLECULAR_WEIGHT>
226.66

> <EXACT_MASS>
226.0396719

> <JCHEM_ACCEPTOR_COUNT>
3

> <JCHEM_ATOM_COUNT>
26

> <JCHEM_AVERAGE_POLARIZABILITY>
22.284825813457417

> <JCHEM_BIOAVAILABILITY>
1

> <JCHEM_DONOR_COUNT>
1

> <JCHEM_FORMAL_CHARGE>
0

> <JCHEM_GHOSE_FILTER>
1

> <JCHEM_IUPAC>
2-[3-chloro-4-(prop-2-en-1-yloxy)phenyl]acetic acid

> <ALOGPS_LOGP>
3.01

> <JCHEM_LOGP>
2.788617339333333

> <ALOGPS_LOGS>
-2.90

> <JCHEM_MDDR_LIKE_RULE>
0

> <JCHEM_NUMBER_OF_RINGS>
1

> <JCHEM_PHYSIOLOGICAL_CHARGE>
-1

> <JCHEM_PKA_STRONGEST_ACIDIC>
3.705692735266783

> <JCHEM_PKA_STRONGEST_BASIC>
-4.913613057291896

> <JCHEM_POLAR_SURFACE_AREA>
46.53

> <JCHEM_REFRACTIVITY>
57.79630000000001

> <JCHEM_ROTATABLE_BOND_COUNT>
5

> <JCHEM_RULE_OF_FIVE>
1

> <ALOGPS_SOLUBILITY>
2.88e-01 g/l

> <JCHEM_TRADITIONAL_IUPAC>
mervan

> <JCHEM_VEBER_RULE>
0

> <DRUGBANK_ID>
DB13167

> <DRUG_GROUPS>
approved; withdrawn

> <GENERIC_NAME>
Alclofenac

> <SYNONYMS>
(4-Allyloxy-3-chlorphenyl)essigsäure; [4-(allyloxy)-3-chlorophenyl]acetic acid; 3-Chloro-4-(2-propenyloxy)benzeneacetic acid; Alclofenac; Alclofénac; Alclofenaco; Alclofenacum; Alclophenac

> <INTERNATIONAL_BRANDS>
Allopydin; Medifenac; Mervan; Neosten; Neoston; Prinalgin; Reufenac; Zumaril

$$$$

  Mrv1718001231811472D          

 12 12  0  0  0  0            999 V2000
    0.7145    0.4125    0.0000 C   0  0  2  0  0  0  0  0  0  0  0  0
    0.7145   -0.4125    0.0000 C   0  0  1  0  0  0  0  0  0  0  0  0
    0.0000   -0.8251    0.0000 C   0  0  1  0  0  0  0  0  0  0  0  0
   -0.7145   -0.4125    0.0000 C   0  0  2  0  0  0  0  0  0  0  0  0
   -0.7145    0.4125    0.0000 C   0  0  1  0  0  0  0  0  0  0  0  0
    0.0000    0.8251    0.0000 C   0  0  1  0  0  0  0  0  0  0  0  0
    1.4290    0.8251    0.0000 O   0  0  0  0  0  0  0  0  0  0  0  0
    1.4290   -0.8251    0.0000 O   0  0  0  0  0  0  0  0  0  0  0  0
    0.0000   -1.6501    0.0000 O   0  0  0  0  0  0  0  0  0  0  0  0
   -1.4290   -0.8251    0.0000 O   0  0  0  0  0  0  0  0  0  0  0  0
   -1.4290    0.8251    0.0000 O   0  0  0  0  0  0  0  0  0  0  0  0
    0.0000    1.6501    0.0000 O   0  0  0  0  0  0  0  0  0  0  0  0
  1  2  1  0  0  0  0
  1  6  1  0  0  0  0
  1  7  1  6  0  0  0
  2  3  1  0  0  0  0
  2  8  1  6  0  0  0
  3  4  1  0  0  0  0
  3  9  1  6  0  0  0
  4  5  1  0  0  0  0
  4 10  1  1  0  0  0
  5  6  1  0  0  0  0
  5 11  1  6  0  0  0
  6 12  1  1  0  0  0
M  END
> <DATABASE_ID>
DB13178

> <DATABASE_NAME>
drugbank

> <SMILES>
O[C@H]1[C@H](O)[C@@H](O)[C@H](O)[C@H](O)[C@@H]1O

> <INCHI_IDENTIFIER>
InChI=1S/C6H12O6/c7-1-2(8)4(10)6(12)5(11)3(1)9/h1-12H/t1-,2-,3-,4+,5-,6-

> <INCHI_KEY>
CDAISMWEOUEBRE-GPIVLXJGSA-N

> <FORMULA>
C6H12O6

> <MOLECULAR_WEIGHT>
180.1559

> <EXACT_MASS>
180.063388116

> <JCHEM_ACCEPTOR_COUNT>
6

> <JCHEM_ATOM_COUNT>
24

> <JCHEM_AVERAGE_POLARIZABILITY>
16.141745963720343

> <JCHEM_BIOAVAILABILITY>
1

> <JCHEM_DONOR_COUNT>
6

> <JCHEM_FORMAL_CHARGE>
0

> <JCHEM_GHOSE_FILTER>
0

> <JCHEM_IUPAC>
(1R,2R,3r,4S,5S,6s)-cyclohexane-1,2,3,4,5,6-hexol

> <ALOGPS_LOGP>
-2.59

> <JCHEM_LOGP>
-3.782009652

> <ALOGPS_LOGS>
0.43

> <JCHEM_MDDR_LIKE_RULE>
0

> <JCHEM_NUMBER_OF_RINGS>
1

> <JCHEM_PHYSIOLOGICAL_CHARGE>
0

> <JCHEM_PKA>
12.908097249605351

> <JCHEM_PKA_STRONGEST_ACIDIC>
12.285497953856298

> <JCHEM_PKA_STRONGEST_BASIC>
-3.645759838065448

> <JCHEM_POLAR_SURFACE_AREA>
121.38000000000001

> <JCHEM_REFRACTIVITY>
35.77499999999999

> <JCHEM_ROTATABLE_BOND_COUNT>
0

> <JCHEM_RULE_OF_FIVE>
0

> <ALOGPS_SOLUBILITY>
4.85e+02 g/l

> <JCHEM_TRADITIONAL_IUPAC>
L-inositol

> <JCHEM_VEBER_RULE>
0

> <DRUGBANK_ID>
DB13178

> <SECONDARY_ACCESSION_NUMBERS>
DB11196

> <DRUG_GROUPS>
approved; investigational; withdrawn

> <GENERIC_NAME>
Inositol

> <SYNONYMS>
1,2,3,5/4,6-cyclohexanehexol; cis-1,2,3,5-trans-4,6-cyclohexanehexol; Inositol; L-myo-Inositol; Meat sugar; meso-Inositol; myo-inositol

> <PRODUCTS>
24 Multivitamins + Minerals; 50 Plus; Advanced 2000 Capsules; Alertonic; Alkadrenergy Tablets; American Eagle Energizer Plus Vitamin Supplement Drink; American Plus Energy & Vitamin Drink; Amino-cerv; B 50 Capsules; B Complex 25mg Vitamin Supplement; B Complex 50 Vitamin Cap; B Complex 50+ Caplet; B Compound 50mg Tab; B-100 Caps; B-100 Vitamin Supplement; B-50 Complex; B-50 Hi Potency B Vitamins Tab; B-complex; B-complex 100; B-complex 50; B-complex Tab; B-complex With Vitamin C, Biotin, Folic Acid; B-complex-50 Tab; B-plex; B-plus - Tab; B50 Complex; Balanced B 125 Srt; Bev 29 Tab; Bev B-150; Bev-lipo-1000; Biosculpt; Body Rox; Body Tropics Plus Tab; C. Vit-min Formula; C.A.G. Tab; Calcium Magnesium Plus Vitamin D Liquid; Children's Chewable Multivitamins and Minerals; Children's Chewable Vit and Min Tab; Choline & Inositol Caps; Choline Inositol Methionine; Choline and Inositol 250mg/250mg; Chromium and Vanadium Mineral Supplement; Classic Swiss One 10 Multivitamin and Mineral Tab; Complete Mega B; Complete Multivitamins and Minerals Tablets Timed Release; Complexe B Compose 75; Cyruta Tab; Daily Energy Brand Vitamin & Mineral Drink Mix; Deriton; Derma-force; Doctor's Choice Brand for Men; Dp 2000; Essential B Tablets; Extra Once A Day; Flush Free Niacin With Inositol; For-2; Formula 9 Tab; Formula C.I. Tab; Formula Cm; Formula F L W; Formula Gly; Formula Hh; Formula Lf; Formula Pro-B; Forty Plus Vitamin Supplement; Fusion PM Formula Tab; Gnc Choline/inositol 250mg Tablets; Grand Master Formula Tab; Harvest Of Values All B Complex Tab; Hi Potency B Complex W Chelated Minerals; Hi Potency B52 B Complex Tab; Hi Potency Multi Tab; Hi Potency Stress B Tension With C; Hoa 1; Hyporyl - Tab; Innersource Tab; Inositol 250mg - Tab; Inositol 500mg; Inositol Caps 500mg; Inositol Ctr Srt 400mg; Inositol Nicotinate 250 mg; Inositol Nicotinate Plus CR; Inositol Tab 250mg; Inositol Tab 405mg; Inositol-S Tab 400mg; Inositolex 400mgms; Insur-all Vitamin Supplement; L Fac Tab; L.C. Supplement; Lip - Fac Formula; Lipall Plus Tab; Lipo Factors Plus B6; Lipo-B-C Tab; Lipotrope Tab; Lipotrope-plus B6 Tab; Lipotropic Adjunct; Lipotropic Ctr; Lipotropics 600 Tab; Lipovite; Liqui B Complex; Liqui B Complex Plus; Liqui Vita; Liquid B Complex 50; Low Potency B Complex Tab; Magnum-75 Vitamin and Mineral Supplement; Maintain Multiple Vitamin & Minerals; Master Key Multi Vitamin Multi Mineral Formula 2; Maximum Once A Day; Maxine Vitamin and Mineral Supplement; Mega 13 Multivitamin Formula; Mega Balance; Mega Capsules; Mega Lipotropic Cap; Mega Plex III - Pck; Mega Plex IV - Pck; Mega Vitaminerals; Mega-vim 75 With Beta-carotene - Tablets; Men's 50+; Men's Biomultiple Vitamin and Mineral Supplement; Men's Multi Master Formula; Mic B12; Mini-B Tab; Multi B; Multi II IV Vi Tab; Multi Plex I - Tab; Multi Plex II - Tab; Multi Tabs; Multi Vitamin-mineral Formula; Multi-force for Women Tab; Multi-phyto Capsules; Multicaps; Multipack II; Multiple Vitamins and Minerals Capsules; Multitabs; Multivitamin & Minerals (iron Free); Multivitamin & Multimineral; Multivitamine; Multivitamins and Minerals With Betacarotene Tablets; Multivitamins and Minerals for Men; Multivitamins and Minerals for Women; Multivitamins and Minerals for Young Men; Multivitamins and Minerals for Young Women; Multra Plex; Multra With Iron; My Favorite Niacin and Inositol Tab; Natural Source Spectrum With Beta Carotene; Neomultivite; Neonatal Plus Vitamin; Neonatal Vitamin; New Chapter's D'adamo 4 Your Type Multiple for Type O; Niacin 500 Mg and Inositol; Nrg Plus Liq; Olympian Multi Vit Plus Minerals Tab; Onccor; One A Day Multiple Vit W Minerals; One A Day Tab; Only One - Tablet; Orti B; Palm Spring's PM Form Tab; Phytopure; Phytovim Cap; Prenatal Formula Tab; Prenatal Vi-min; Prenatvite; Prenatvite Plus; Red American Eagle Vitamin Supplement Drink; Revit Multi-vitamins and Minerals; Revitalize Multi-vitamin and Mineral Complex; Revitex Ampoules Et Comprimes; Right Choice P.M. Multi Formula - Caplet; Spectrum 2 Cap; Stom #2; Stress B & C Caplet; Stress B Capsules With Vitamin C; Stress B With 1000 Mg Vitamin C; Stress B&c Tab; Stress Ctr Srt; Stress Formula B-comp + 500mg Vit C Tab; Stress Formula Multi-B Comp + 500mg Vit C Cap; Stress Formula Vit B With C Complex; Stress Forte Plus Lipotropic Factors; Stress Vitamin B With C Complex Tablets; Stressmates; Super B Compound W 500mg Vit C; Super Daily No 2; Super Multi; Super Stress Capsules; Super Stress Mega B Plus 1000mg Vit C Tab; Super Vita Vim Multivitamins and Minerals; Super Vita-vim With Beta-carotene - Tab; Super-pote Vitamin Supplement; Swiss One; Swiss One Multi Vit & Chel Min Tab; Swiss One Multivitamin and Mineral Caplet; Swiss One Timed Release Tab; Time Release B 100 Compound - Tablet; Timed Release B Complex 100 Srt; Timed Release B-complex 100; Timed Release B-complex 50; Timed Release Vita-vim Srt; Ultr F/b E.S. Mega Lipotropic Fmla W B6bet; Ultra Hr; Usana Megavitamin Tablets - Tab; Vasula Tab; Vege 1 Daily Tab; Vege Swiss One Multivitamin W Chel Mins Tab; Vit B Complex Ctr; Vit-HA Multi Vitamin and Zinc Supplement; Vita B Complex Tab; Vita Balance 2000; Vita Plex Tab; Vita Vim Multivitamins and Minerals Tab; Vita Vim With Beta Carotene-caplet; Vita-B; Vita-vim - Tab; Vita-vim With Beta-carotene - Tab; Vita-worth B-complex Tablets; Vitachrom Gc; Vitalife - Capsule; Vitamin & Mineral Formula 1 Dietary Supplement; Vitamin B + C Cap; Vitamin B Complex 100 Tab; Vitamin B Complex 50; Vitamin B Complex Suppl; Vitamin B Complex W C Tab; Vitamin B Compound W C Tab 500mg; Vitamin B Compound W Vit C 250mg Tab; Vitamin B Tablets; Vitaplex; Wellness Formula; Women's Biomultiple Vitamin and Mineral Supplement; Women's Formula

$$$$

  Mrv0541 02241205292D          

 15 15  0  0  0  0            999 V2000
    2.8579    2.4750    0.0000 C   0  0  0  0  0  0  0  0  0  0  0  0
    2.1434    2.0625    0.0000 C   0  0  0  0  0  0  0  0  0  0  0  0
    1.4289    2.4750    0.0000 O   0  0  0  0  0  0  0  0  0  0  0  0
    2.1434    1.2375    0.0000 N   0  0  0  0  0  0  0  0  0  0  0  0
    1.4289    0.8250    0.0000 C   0  0  0  0  0  0  0  0  0  0  0  0
    1.4289    0.0000    0.0000 C   0  0  0  0  0  0  0  0  0  0  0  0
    0.7145   -0.4125    0.0000 C   0  0  0  0  0  0  0  0  0  0  0  0
    0.0000    0.0000    0.0000 C   0  0  0  0  0  0  0  0  0  0  0  0
    0.0000    0.8250    0.0000 C   0  0  0  0  0  0  0  0  0  0  0  0
    0.7145    1.2375    0.0000 C   0  0  0  0  0  0  0  0  0  0  0  0
    0.7145    2.0625    0.0000 O   0  0  0  0  0  0  0  0  0  0  0  0
    0.7145   -1.2375    0.0000 As  0  0  0  0  0  0  0  0  0  0  0  0
    0.7145   -2.0625    0.0000 O   0  0  0  0  0  0  0  0  0  0  0  0
   -0.1105   -1.2375    0.0000 O   0  0  0  0  0  0  0  0  0  0  0  0
    1.5395   -1.2375    0.0000 O   0  0  0  0  0  0  0  0  0  0  0  0
  1  2  1  0  0  0  0
  2  3  2  0  0  0  0
  2  4  1  0  0  0  0
  4  5  1  0  0  0  0
  5  6  2  0  0  0  0
  6  7  1  0  0  0  0
  7  8  2  0  0  0  0
  8  9  1  0  0  0  0
  9 10  2  0  0  0  0
  5 10  1  0  0  0  0
 10 11  1  0  0  0  0
  7 12  1  0  0  0  0
 12 13  1  0  0  0  0
 12 14  1  0  0  0  0
 12 15  2  0  0  0  0
M  END
> <DATABASE_ID>
DB13268

> <DATABASE_NAME>
drugbank

> <SMILES>
CC(=O)NC1=CC(=CC=C1O)[As](O)(O)=O

> <INCHI_IDENTIFIER>
InChI=1S/C8H10AsNO5/c1-5(11)10-7-4-6(9(13,14)15)2-3-8(7)12/h2-4,12H,1H3,(H,10,11)(H2,13,14,15)

> <INCHI_KEY>
ODFJOVXVLFUVNQ-UHFFFAOYSA-N

> <FORMULA>
C8H10AsNO5

> <MOLECULAR_WEIGHT>
275.0903

> <EXACT_MASS>
274.977493852

> <JCHEM_ACCEPTOR_COUNT>
5

> <JCHEM_AVERAGE_POLARIZABILITY>
21.45276584328502

> <JCHEM_BIOAVAILABILITY>
1

> <JCHEM_DONOR_COUNT>
4

> <JCHEM_FORMAL_CHARGE>
0

> <JCHEM_GHOSE_FILTER>
1

> <JCHEM_IUPAC>
(3-acetamido-4-hydroxyphenyl)arsonic acid

> <ALOGPS_LOGP>
-0.15

> <JCHEM_LOGP>
-0.03050000000000019

> <ALOGPS_LOGS>
-1.99

> <JCHEM_MDDR_LIKE_RULE>
0

> <JCHEM_NUMBER_OF_RINGS>
1

> <JCHEM_PHYSIOLOGICAL_CHARGE>
-1

> <JCHEM_PKA>
8.486623153311998

> <JCHEM_PKA_STRONGEST_ACIDIC>
3.5535356921896244

> <JCHEM_PKA_STRONGEST_BASIC>
-4.5106262412415346

> <JCHEM_POLAR_SURFACE_AREA>
106.86000000000001

> <JCHEM_REFRACTIVITY>
48.890299999999996

> <JCHEM_ROTATABLE_BOND_COUNT>
2

> <JCHEM_RULE_OF_FIVE>
1

> <ALOGPS_SOLUBILITY>
2.80e+00 g/l

> <JCHEM_TRADITIONAL_IUPAC>
amoebal

> <JCHEM_VEBER_RULE>
0

> <DRUGBANK_ID>
DB13268

> <DRUG_GROUPS>
approved; withdrawn

> <GENERIC_NAME>
Acetarsol

> <PRODUCTS>
Neo Vagex

$$$$

  Mrv1572004221605072D          

 22 24  0  0  0  0            999 V2000
   -0.5837    2.2374    0.0000 C   0  0  0  0  0  0  0  0  0  0  0  0
   -0.1712    1.5229    0.0000 C   0  0  0  0  0  0  0  0  0  0  0  0
    3.3523    1.1104    0.0000 C   0  0  0  0  0  0  0  0  0  0  0  0
    3.3523    1.9354    0.0000 C   0  0  0  0  0  0  0  0  0  0  0  0
    2.6378    0.6979    0.0000 C   0  0  0  0  0  0  0  0  0  0  0  0
    2.6378    2.3479    0.0000 C   0  0  0  0  0  0  0  0  0  0  0  0
   -0.1781   -0.8853    0.0000 C   0  0  0  0  0  0  0  0  0  0  0  0
   -0.4752    0.5124    0.0000 C   0  0  0  0  0  0  0  0  0  0  0  0
    0.0768   -0.1006    0.0000 C   0  0  0  0  0  0  0  0  0  0  0  0
    1.9233    1.1104    0.0000 C   0  0  0  0  0  0  0  0  0  0  0  0
   -0.9851   -1.0568    0.0000 C   0  0  0  0  0  0  0  0  0  0  0  0
   -1.2822    0.3409    0.0000 C   0  0  0  0  0  0  0  0  0  0  0  0
    0.6538    1.5229    0.0000 C   0  0  0  0  0  0  0  0  0  0  0  0
    1.9233    1.9354    0.0000 C   0  0  0  0  0  0  0  0  0  0  0  0
    1.1387    0.8555    0.0000 C   0  0  0  0  0  0  0  0  0  0  0  0
    0.8838    0.0709    0.0000 C   0  0  0  0  0  0  0  0  0  0  0  0
   -1.5371   -0.4437    0.0000 C   0  0  0  0  0  0  0  0  0  0  0  0
   -1.2400   -1.8414    0.0000 I   0  0  0  0  0  0  0  0  0  0  0  0
   -1.8342    0.9540    0.0000 I   0  0  0  0  0  0  0  0  0  0  0  0
    1.4358   -0.5422    0.0000 O   0  0  0  0  0  0  0  0  0  0  0  0
   -2.3441   -0.6152    0.0000 O   0  0  0  0  0  0  0  0  0  0  0  0
    1.1387    2.1904    0.0000 O   0  0  0  0  0  0  0  0  0  0  0  0
  2  1  1  0  0  0  0
  4  3  2  0  0  0  0
  5  3  1  0  0  0  0
  6  4  1  0  0  0  0
  9  7  2  0  0  0  0
  9  8  1  0  0  0  0
 10  5  2  0  0  0  0
 11  7  1  0  0  0  0
 12  8  2  0  0  0  0
 13  2  1  0  0  0  0
 14  6  2  0  0  0  0
 14 10  1  0  0  0  0
 15 10  1  0  0  0  0
 15 13  2  0  0  0  0
 16  9  1  0  0  0  0
 16 15  1  0  0  0  0
 17 11  2  0  0  0  0
 17 12  1  0  0  0  0
 18 11  1  0  0  0  0
 19 12  1  0  0  0  0
 20 16  2  0  0  0  0
 21 17  1  0  0  0  0
 22 13  1  0  0  0  0
 22 14  1  0  0  0  0
M  END
> <DATABASE_ID>
DB13277

> <DATABASE_NAME>
drugbank

> <SMILES>
CCC1=C(C(=O)C2=CC(I)=C(O)C(I)=C2)C2=CC=CC=C2O1

> <INCHI_IDENTIFIER>
InChI=1S/C17H12I2O3/c1-2-13-15(10-5-3-4-6-14(10)22-13)16(20)9-7-11(18)17(21)12(19)8-9/h3-8,21H,2H2,1H3

> <INCHI_KEY>
CZCHIEJNWPNBDE-UHFFFAOYSA-N

> <FORMULA>
C17H12I2O3

> <MOLECULAR_WEIGHT>
518.089

> <EXACT_MASS>
517.88758

> <JCHEM_ACCEPTOR_COUNT>
2

> <JCHEM_ATOM_COUNT>
34

> <JCHEM_AVERAGE_POLARIZABILITY>
39.83624536372787

> <JCHEM_BIOAVAILABILITY>
0

> <JCHEM_DONOR_COUNT>
1

> <JCHEM_FORMAL_CHARGE>
0

> <JCHEM_GHOSE_FILTER>
0

> <JCHEM_IUPAC>
4-(2-ethyl-1-benzofuran-3-carbonyl)-2,6-diiodophenol

> <ALOGPS_LOGP>
5.80

> <JCHEM_LOGP>
5.868129606999999

> <ALOGPS_LOGS>
-4.57

> <JCHEM_MDDR_LIKE_RULE>
0

> <JCHEM_NUMBER_OF_RINGS>
3

> <JCHEM_PHYSIOLOGICAL_CHARGE>
-1

> <JCHEM_PKA_STRONGEST_ACIDIC>
5.606140270090533

> <JCHEM_PKA_STRONGEST_BASIC>
-2.9834082926931744

> <JCHEM_POLAR_SURFACE_AREA>
50.44

> <JCHEM_REFRACTIVITY>
103.8542

> <JCHEM_ROTATABLE_BOND_COUNT>
3

> <JCHEM_RULE_OF_FIVE>
0

> <ALOGPS_SOLUBILITY>
1.39e-02 g/l

> <JCHEM_TRADITIONAL_IUPAC>
benziodarone

> <JCHEM_VEBER_RULE>
0

> <DRUGBANK_ID>
DB13277

> <DRUG_GROUPS>
approved; withdrawn

> <GENERIC_NAME>
Benziodarone

$$$$

  Mrv1572004221603042D          

 16 16  0  0  0  0            999 V2000
    3.5724    5.3625    0.0000 C   0  0  0  0  0  0  0  0  0  0  0  0
   -2.8579    2.4750    0.0000 C   0  0  0  0  0  0  0  0  0  0  0  0
    2.8579    4.9500    0.0000 C   0  0  0  0  0  0  0  0  0  0  0  0
    1.4289    2.4750    0.0000 C   0  0  0  0  0  0  0  0  0  0  0  0
    0.7145    3.7125    0.0000 C   0  0  0  0  0  0  0  0  0  0  0  0
    2.1434    2.8875    0.0000 C   0  0  0  0  0  0  0  0  0  0  0  0
    1.4289    4.1250    0.0000 C   0  0  0  0  0  0  0  0  0  0  0  0
   -1.4289    2.4750    0.0000 C   0  0  0  0  0  0  0  0  0  0  0  0
   -2.1434    2.8875    0.0000 C   0  0  0  0  0  0  0  0  0  0  0  0
    0.7145    2.8875    0.0000 C   0  0  0  0  0  0  0  0  0  0  0  0
    2.1434    3.7125    0.0000 C   0  0  0  0  0  0  0  0  0  0  0  0
   -0.7145    2.8875    0.0000 C   0  0  0  0  0  0  0  0  0  0  0  0
    0.0000    2.4750    0.0000 N   0  0  0  0  0  0  0  0  0  0  0  0
   -2.1434    3.7125    0.0000 O   0  0  0  0  0  0  0  0  0  0  0  0
   -0.7145    3.7125    0.0000 O   0  0  0  0  0  0  0  0  0  0  0  0
    2.8579    4.1250    0.0000 O   0  0  0  0  0  0  0  0  0  0  0  0
  3  1  1  0  0  0  0
  6  4  1  0  0  0  0
  7  5  2  0  0  0  0
  9  2  1  0  0  0  0
  9  8  1  0  0  0  0
 10  4  2  0  0  0  0
 10  5  1  0  0  0  0
 11  6  2  0  0  0  0
 11  7  1  0  0  0  0
 12  8  1  0  0  0  0
 13 10  1  0  0  0  0
 13 12  1  0  0  0  0
 14  9  1  0  0  0  0
 15 12  2  0  0  0  0
 16  3  1  0  0  0  0
 16 11  1  0  0  0  0
M  END
> <DATABASE_ID>
DB13278

> <DATABASE_NAME>
drugbank

> <SMILES>
CCOC1=CC=C(NC(=O)CC(C)O)C=C1

> <INCHI_IDENTIFIER>
InChI=1S/C12H17NO3/c1-3-16-11-6-4-10(5-7-11)13-12(15)8-9(2)14/h4-7,9,14H,3,8H2,1-2H3,(H,13,15)

> <INCHI_KEY>
LIAWQASKBFCRNR-UHFFFAOYSA-N

> <FORMULA>
C12H17NO3

> <MOLECULAR_WEIGHT>
223.272

> <EXACT_MASS>
223.120843411

> <JCHEM_ACCEPTOR_COUNT>
3

> <JCHEM_ATOM_COUNT>
33

> <JCHEM_AVERAGE_POLARIZABILITY>
24.735730013137903

> <JCHEM_BIOAVAILABILITY>
1

> <JCHEM_DONOR_COUNT>
2

> <JCHEM_FORMAL_CHARGE>
0

> <JCHEM_GHOSE_FILTER>
1

> <JCHEM_IUPAC>
N-(4-ethoxyphenyl)-3-hydroxybutanamide

> <ALOGPS_LOGP>
1.39

> <JCHEM_LOGP>
1.2464325873333337

> <ALOGPS_LOGS>
-2.01

> <JCHEM_MDDR_LIKE_RULE>
0

> <JCHEM_NUMBER_OF_RINGS>
1

> <JCHEM_PHYSIOLOGICAL_CHARGE>
0

> <JCHEM_PKA>
15.700032239753298

> <JCHEM_PKA_STRONGEST_ACIDIC>
14.577763623212089

> <JCHEM_PKA_STRONGEST_BASIC>
-2.604390669563262

> <JCHEM_POLAR_SURFACE_AREA>
58.56

> <JCHEM_REFRACTIVITY>
62.9532

> <JCHEM_ROTATABLE_BOND_COUNT>
5

> <JCHEM_RULE_OF_FIVE>
1

> <ALOGPS_SOLUBILITY>
2.17e+00 g/l

> <JCHEM_TRADITIONAL_IUPAC>
bucetin

> <JCHEM_VEBER_RULE>
0

> <DRUGBANK_ID>
DB13278

> <DRUG_GROUPS>
approved; withdrawn

> <GENERIC_NAME>
Bucetin

$$$$

  Mrv1652306031607112D          

 26 27  0  0  0  0            999 V2000
   13.5749   -7.0125    0.0000 C   0  0  0  0  0  0  0  0  0  0  0  0
   14.2894   -5.7750    0.0000 C   0  0  0  0  0  0  0  0  0  0  0  0
    5.0013   -2.0625    0.0000 C   0  0  0  0  0  0  0  0  0  0  0  0
   12.1460   -2.8875    0.0000 C   0  0  0  0  0  0  0  0  0  0  0  0
   12.8605   -6.6000    0.0000 C   0  0  0  0  0  0  0  0  0  0  0  0
   13.5749   -5.3625    0.0000 C   0  0  0  0  0  0  0  0  0  0  0  0
    5.7158   -1.6500    0.0000 C   0  0  0  0  0  0  0  0  0  0  0  0
   10.0026   -1.6500    0.0000 C   0  0  0  0  0  0  0  0  0  0  0  0
   10.7171   -2.0625    0.0000 C   0  0  0  0  0  0  0  0  0  0  0  0
   12.1460   -4.5375    0.0000 C   0  0  0  0  0  0  0  0  0  0  0  0
   12.1460   -5.3625    0.0000 C   0  0  0  0  0  0  0  0  0  0  0  0
    9.2881   -2.8875    0.0000 C   0  0  0  0  0  0  0  0  0  0  0  0
    7.8592   -2.0625    0.0000 C   0  0  0  0  0  0  0  0  0  0  0  0
   11.4315   -3.3000    0.0000 C   0  0  0  0  0  0  0  0  0  0  0  0
    9.2881   -2.0625    0.0000 C   0  0  0  0  0  0  0  0  0  0  0  0
   10.7171   -2.8875    0.0000 C   0  0  0  0  0  0  0  0  0  0  0  0
   11.4315   -4.1250    0.0000 C   0  0  0  0  0  0  0  0  0  0  0  0
   10.0026   -3.3000    0.0000 C   0  0  0  0  0  0  0  0  0  0  0  0
    7.1447   -1.6500    0.0000 C   0  0  0  0  0  0  0  0  0  0  0  0
   10.7171   -4.5375    0.0000 C   0  0  0  0  0  0  0  0  0  0  0  0
   12.8605   -5.7750    0.0000 N   0  0  0  0  0  0  0  0  0  0  0  0
    7.1447   -0.8250    0.0000 O   0  0  0  0  0  0  0  0  0  0  0  0
   10.7171   -5.3625    0.0000 O   0  0  0  0  0  0  0  0  0  0  0  0
    6.4302   -2.0625    0.0000 O   0  0  0  0  0  0  0  0  0  0  0  0
    8.5737   -1.6500    0.0000 O   0  0  0  0  0  0  0  0  0  0  0  0
   10.0026   -4.1250    0.0000 O   0  0  0  0  0  0  0  0  0  0  0  0
  5  1  1  0  0  0  0
  6  2  1  0  0  0  0
  7  3  1  0  0  0  0
  9  8  2  0  0  0  0
 11 10  1  0  0  0  0
 14  4  1  0  0  0  0
 15  8  1  0  0  0  0
 15 12  2  0  0  0  0
 16  9  1  0  0  0  0
 16 14  1  0  0  0  0
 17 10  1  0  0  0  0
 17 14  2  0  0  0  0
 18 12  1  0  0  0  0
 18 16  2  0  0  0  0
 19 13  1  0  0  0  0
 20 17  1  0  0  0  0
 21  5  1  0  0  0  0
 21  6  1  0  0  0  0
 21 11  1  0  0  0  0
 22 19  2  0  0  0  0
 23 20  2  0  0  0  0
 24  7  1  0  0  0  0
 24 19  1  0  0  0  0
 25 13  1  0  0  0  0
 25 15  1  0  0  0  0
 26 18  1  0  0  0  0
 26 20  1  0  0  0  0
M  END
> <DATABASE_ID>
DB13279

> <DATABASE_NAME>
drugbank

> <SMILES>
CCOC(=O)COC1=CC2=C(C=C1)C(C)=C(CCN(CC)CC)C(=O)O2

> <INCHI_IDENTIFIER>
InChI=1S/C20H27NO5/c1-5-21(6-2)11-10-17-14(4)16-9-8-15(12-18(16)26-20(17)23)25-13-19(22)24-7-3/h8-9,12H,5-7,10-11,13H2,1-4H3

> <INCHI_KEY>
KLOIYEQEVSIOOO-UHFFFAOYSA-N

> <FORMULA>
C20H27NO5

> <MOLECULAR_WEIGHT>
361.438

> <EXACT_MASS>
361.188922973

> <JCHEM_ACCEPTOR_COUNT>
4

> <JCHEM_ATOM_COUNT>
53

> <JCHEM_AVERAGE_POLARIZABILITY>
40.52980505056817

> <JCHEM_BIOAVAILABILITY>
1

> <JCHEM_DONOR_COUNT>
0

> <JCHEM_FORMAL_CHARGE>
0

> <JCHEM_GHOSE_FILTER>
1

> <JCHEM_IUPAC>
ethyl 2-({3-[2-(diethylamino)ethyl]-4-methyl-2-oxo-2H-chromen-7-yl}oxy)acetate

> <ALOGPS_LOGP>
3.55

> <JCHEM_LOGP>
2.7315712550000013

> <ALOGPS_LOGS>
-3.91

> <JCHEM_MDDR_LIKE_RULE>
0

> <JCHEM_NUMBER_OF_RINGS>
2

> <JCHEM_PHYSIOLOGICAL_CHARGE>
1

> <JCHEM_PKA_STRONGEST_BASIC>
9.102514241478122

> <JCHEM_POLAR_SURFACE_AREA>
65.07000000000001

> <JCHEM_REFRACTIVITY>
100.00689999999997

> <JCHEM_ROTATABLE_BOND_COUNT>
10

> <JCHEM_RULE_OF_FIVE>
1

> <ALOGPS_SOLUBILITY>
4.43e-02 g/l

> <JCHEM_TRADITIONAL_IUPAC>
ethyl ({3-[2-(diethylamino)ethyl]-4-methyl-2-oxochromen-7-yl}oxy)acetate

> <JCHEM_VEBER_RULE>
0

> <DRUGBANK_ID>
DB13279

> <DRUG_GROUPS>
approved; withdrawn

> <GENERIC_NAME>
Carbocromen

> <SYNONYMS>
Chromonar

$$$$

  Mrv1718004261821442D          

 16 16  0  0  0  0            999 V2000
   -0.3764    0.4182    0.0000 C   0  0  0  0  0  0  0  0  0  0  0  0
   -0.3764   -0.4182    0.0000 C   0  0  0  0  0  0  0  0  0  0  0  0
    0.3764   -0.8364    0.0000 C   0  0  0  0  0  0  0  0  0  0  0  0
    1.0873   -0.4182    0.0000 C   0  0  0  0  0  0  0  0  0  0  0  0
    1.0873    0.4182    0.0000 C   0  0  0  0  0  0  0  0  0  0  0  0
    0.3764    0.8365    0.0000 C   0  0  0  0  0  0  0  0  0  0  0  0
    1.7984    0.8365    0.0000 C   0  0  0  0  0  0  0  0  0  0  0  0
    2.5094    0.4182    0.0000 C   0  0  0  0  0  0  0  0  0  0  0  0
    3.2624    0.8365    0.0000 N   0  0  0  0  0  0  0  0  0  0  0  0
    2.5094   -0.4182    0.0000 O   0  0  0  0  0  0  0  0  0  0  0  0
    3.9734    0.4182    0.0000 O   0  0  0  0  0  0  0  0  0  0  0  0
   -1.0875   -0.8364    0.0000 O   0  0  0  0  0  0  0  0  0  0  0  0
   -1.7986   -0.4182    0.0000 C   0  0  0  0  0  0  0  0  0  0  0  0
   -2.5514   -0.8364    0.0000 C   0  0  0  0  0  0  0  0  0  0  0  0
   -3.2625   -0.4182    0.0000 C   0  0  0  0  0  0  0  0  0  0  0  0
   -3.9734   -0.8364    0.0000 C   0  0  0  0  0  0  0  0  0  0  0  0
  7  8  1  0  0  0  0
  2  3  2  0  0  0  0
  8  9  1  0  0  0  0
  3  4  1  0  0  0  0
  8 10  2  0  0  0  0
  4  5  2  0  0  0  0
  9 11  1  0  0  0  0
  5  6  1  0  0  0  0
  2 12  1  0  0  0  0
  6  1  2  0  0  0  0
 12 13  1  0  0  0  0
 13 14  1  0  0  0  0
  5  7  1  0  0  0  0
 14 15  1  0  0  0  0
  1  2  1  0  0  0  0
 15 16  1  0  0  0  0
M  END
> <DATABASE_ID>
DB13346

> <DATABASE_NAME>
drugbank

> <SMILES>
CCCCOC1=CC=C(CC(=O)NO)C=C1

> <INCHI_IDENTIFIER>
InChI=1S/C12H17NO3/c1-2-3-8-16-11-6-4-10(5-7-11)9-12(14)13-15/h4-7,15H,2-3,8-9H2,1H3,(H,13,14)

> <INCHI_KEY>
MXJWRABVEGLYDG-UHFFFAOYSA-N

> <FORMULA>
C12H17NO3

> <MOLECULAR_WEIGHT>
223.272

> <EXACT_MASS>
223.120843411

> <JCHEM_ACCEPTOR_COUNT>
3

> <JCHEM_ATOM_COUNT>
33

> <JCHEM_AVERAGE_POLARIZABILITY>
24.582917439231654

> <JCHEM_BIOAVAILABILITY>
1

> <JCHEM_DONOR_COUNT>
2

> <JCHEM_FORMAL_CHARGE>
0

> <JCHEM_GHOSE_FILTER>
1

> <JCHEM_IUPAC>
2-(4-butoxyphenyl)-N-hydroxyacetamide

> <ALOGPS_LOGP>
2.09

> <JCHEM_LOGP>
1.9670975133333335

> <ALOGPS_LOGS>
-2.98

> <JCHEM_MDDR_LIKE_RULE>
0

> <JCHEM_NUMBER_OF_RINGS>
1

> <JCHEM_PHYSIOLOGICAL_CHARGE>
0

> <JCHEM_PKA>
17.164112723240702

> <JCHEM_PKA_STRONGEST_ACIDIC>
8.859258213503633

> <JCHEM_PKA_STRONGEST_BASIC>
-4.840325433523242

> <JCHEM_POLAR_SURFACE_AREA>
58.56

> <JCHEM_REFRACTIVITY>
61.2892

> <JCHEM_ROTATABLE_BOND_COUNT>
6

> <JCHEM_RULE_OF_FIVE>
1

> <ALOGPS_SOLUBILITY>
2.33e-01 g/l

> <JCHEM_TRADITIONAL_IUPAC>
bufexamic acid

> <JCHEM_VEBER_RULE>
0

> <DRUGBANK_ID>
DB13346

> <DRUG_GROUPS>
approved; withdrawn

> <GENERIC_NAME>
Bufexamac

> <SYNONYMS>
2-(p-Butoxyphenyl)-acetohydroxamic acid; 4-Butoxy-N-hydroxybenzeneacetamide; 4-Butoxyphenylacetohydroxamic acid; Acide p-butoxyphenylacethydroxamique; Bufexamac; bufexamaco; bufexamacum; Bufexamic acid; p-Butoxyphenylacetohydroxamic acid

> <PRODUCTS>
Norfemac Cream - 5%; Norfemac Ointment - 5%

$$$$

  Mrv1718004201810472D          

 18 19  0  0  0  0            999 V2000
   -2.9412   -0.7390    0.0000 O   0  0  0  0  0  0  0  0  0  0  0  0
   -2.3231   -0.1929    0.0000 C   0  0  0  0  0  0  0  0  0  0  0  0
   -1.5383   -0.4520    0.0000 C   0  0  2  0  0  0  0  0  0  0  0  0
   -1.2883   -1.2382    0.0000 C   0  0  1  0  0  0  0  0  0  0  0  0
   -1.7797   -1.9030    0.0000 O   0  0  0  0  0  0  0  0  0  0  0  0
   -0.4640   -1.2416    0.0000 C   0  0  0  0  0  0  0  0  0  0  0  0
   -0.2036   -0.4607    0.0000 C   0  0  1  0  0  0  0  0  0  0  0  0
   -0.8683    0.0305    0.0000 O   0  0  0  0  0  0  0  0  0  0  0  0
    0.5826   -0.2109    0.0000 N   0  0  0  0  0  0  0  0  0  0  0  0
    1.1911   -0.7641    0.0000 C   0  0  0  0  0  0  0  0  0  0  0  0
    1.0149   -1.5714    0.0000 O   0  0  0  0  0  0  0  0  0  0  0  0
    1.9775   -0.5144    0.0000 N   0  0  0  0  0  0  0  0  0  0  0  0
    2.1550    0.2887    0.0000 C   0  0  0  0  0  0  0  0  0  0  0  0
    2.9412    0.5386    0.0000 O   0  0  0  0  0  0  0  0  0  0  0  0
    1.5451    0.8461    0.0000 C   0  0  0  0  0  0  0  0  0  0  0  0
    0.7588    0.5962    0.0000 C   0  0  0  0  0  0  0  0  0  0  0  0
    1.7214    1.6531    0.0000 C   0  0  0  0  0  0  0  0  0  0  0  0
    2.5075    1.9030    0.0000 C   0  0  0  0  0  0  0  0  0  0  0  0
  1  2  1  0  0  0  0
  3  2  1  1  0  0  0
  3  4  1  0  0  0  0
  4  5  1  6  0  0  0
  4  6  1  0  0  0  0
  6  7  1  0  0  0  0
  7  8  1  0  0  0  0
  3  8  1  0  0  0  0
  7  9  1  1  0  0  0
  9 10  1  0  0  0  0
 10 11  2  0  0  0  0
 10 12  1  0  0  0  0
 12 13  1  0  0  0  0
 13 14  2  0  0  0  0
 13 15  1  0  0  0  0
 15 16  2  0  0  0  0
  9 16  1  0  0  0  0
 17 18  1  0  0  0  0
 15 17  1  0  0  0  0
M  END
> <DATABASE_ID>
DB13421

> <DATABASE_NAME>
drugbank

> <SMILES>
CCC1=CN([C@H]2C[C@H](O)[C@@H](CO)O2)C(=O)NC1=O

> <INCHI_IDENTIFIER>
InChI=1S/C11H16N2O5/c1-2-6-4-13(11(17)12-10(6)16)9-3-7(15)8(5-14)18-9/h4,7-9,14-15H,2-3,5H2,1H3,(H,12,16,17)/t7-,8+,9+/m0/s1

> <INCHI_KEY>
XACKNLSZYYIACO-DJLDLDEBSA-N

> <FORMULA>
C11H16N2O5

> <MOLECULAR_WEIGHT>
256.258

> <EXACT_MASS>
256.105921623

> <JCHEM_ACCEPTOR_COUNT>
5

> <JCHEM_ATOM_COUNT>
34

> <JCHEM_AVERAGE_POLARIZABILITY>
24.928746922959377

> <JCHEM_BIOAVAILABILITY>
1

> <JCHEM_DONOR_COUNT>
3

> <JCHEM_FORMAL_CHARGE>
0

> <JCHEM_GHOSE_FILTER>
0

> <JCHEM_IUPAC>
5-ethyl-1-[(2R,4S,5R)-4-hydroxy-5-(hydroxymethyl)oxolan-2-yl]-1,2,3,4-tetrahydropyrimidine-2,4-dione

> <ALOGPS_LOGP>
-0.73

> <JCHEM_LOGP>
-0.674484924333333

> <ALOGPS_LOGS>
-0.62

> <JCHEM_MDDR_LIKE_RULE>
0

> <JCHEM_NUMBER_OF_RINGS>
2

> <JCHEM_PHYSIOLOGICAL_CHARGE>
0

> <JCHEM_PKA>
13.90792197358829

> <JCHEM_PKA_STRONGEST_ACIDIC>
9.953265333434105

> <JCHEM_PKA_STRONGEST_BASIC>
-2.9780835894497937

> <JCHEM_POLAR_SURFACE_AREA>
99.1

> <JCHEM_REFRACTIVITY>
60.01299999999999

> <JCHEM_ROTATABLE_BOND_COUNT>
3

> <JCHEM_RULE_OF_FIVE>
1

> <ALOGPS_SOLUBILITY>
6.14e+01 g/l

> <JCHEM_TRADITIONAL_IUPAC>
5-ethyl-2'-deoxyuridine

> <JCHEM_VEBER_RULE>
0

> <DRUGBANK_ID>
DB13421

> <DRUG_GROUPS>
approved; investigational; withdrawn

> <GENERIC_NAME>
Edoxudine

> <SYNONYMS>
2'-Deoxy-5-ethyluridine; 5-Ethyl-2'-deoxyuridine

> <PRODUCTS>
Virostat Cream 3%

$$$$

  Mrv1652306231722432D          

 21 23  0  0  0  0            999 V2000
    2.5399    2.5934    0.0000 C   0  0  0  0  0  0  0  0  0  0  0  0
    2.7948    1.8088    0.0000 C   0  0  0  0  0  0  0  0  0  0  0  0
    2.2428    1.1957    0.0000 C   0  0  0  0  0  0  0  0  0  0  0  0
    1.4358    1.3672    0.0000 C   0  0  0  0  0  0  0  0  0  0  0  0
    1.1809    2.1518    0.0000 C   0  0  0  0  0  0  0  0  0  0  0  0
    1.7329    2.7649    0.0000 C   0  0  0  0  0  0  0  0  0  0  0  0
    0.8838    0.7541    0.0000 C   0  0  0  0  0  0  0  0  0  0  0  0
    1.1387   -0.0305    0.0000 N   0  0  0  0  0  0  0  0  0  0  0  0
    1.9233   -0.2854    0.0000 C   0  0  0  0  0  0  0  0  0  0  0  0
    2.6378    0.1271    0.0000 C   0  0  0  0  0  0  0  0  0  0  0  0
    3.3523   -0.2854    0.0000 C   0  0  0  0  0  0  0  0  0  0  0  0
    3.3523   -1.1104    0.0000 C   0  0  0  0  0  0  0  0  0  0  0  0
    2.6378   -1.5229    0.0000 C   0  0  0  0  0  0  0  0  0  0  0  0
    1.9233   -1.1104    0.0000 C   0  0  0  0  0  0  0  0  0  0  0  0
    1.1387   -1.3654    0.0000 C   0  0  0  0  0  0  0  0  0  0  0  0
    0.6538   -0.6979    0.0000 N   0  0  0  0  0  0  0  0  0  0  0  0
    0.8838   -2.1500    0.0000 O   0  0  0  0  0  0  0  0  0  0  0  0
    1.4358   -2.7631    0.0000 C   0  0  0  0  0  0  0  0  0  0  0  0
    1.1809   -3.5477    0.0000 C   0  0  0  0  0  0  0  0  0  0  0  0
    1.7329   -4.1608    0.0000 O   0  0  0  0  0  0  0  0  0  0  0  0
    0.3739   -3.7192    0.0000 O   0  0  0  0  0  0  0  0  0  0  0  0
  1  2  2  0  0  0  0
  2  3  1  0  0  0  0
  3  4  2  0  0  0  0
  4  5  1  0  0  0  0
  5  6  2  0  0  0  0
  1  6  1  0  0  0  0
  4  7  1  0  0  0  0
  7  8  1  0  0  0  0
  8  9  1  0  0  0  0
  9 10  2  0  0  0  0
 10 11  1  0  0  0  0
 11 12  2  0  0  0  0
 12 13  1  0  0  0  0
 13 14  2  0  0  0  0
  9 14  1  0  0  0  0
 14 15  1  0  0  0  0
 15 16  2  0  0  0  0
  8 16  1  0  0  0  0
 15 17  1  0  0  0  0
 17 18  1  0  0  0  0
 18 19  1  0  0  0  0
 19 20  2  0  0  0  0
 19 21  1  0  0  0  0
M  END
> <DATABASE_ID>
DB13501

> <DATABASE_NAME>
drugbank

> <SMILES>
OC(=O)COC1=NN(CC2=CC=CC=C2)C2=CC=CC=C12

> <INCHI_IDENTIFIER>
InChI=1S/C16H14N2O3/c19-15(20)11-21-16-13-8-4-5-9-14(13)18(17-16)10-12-6-2-1-3-7-12/h1-9H,10-11H2,(H,19,20)

> <INCHI_KEY>
BYFMCKSPFYVMOU-UHFFFAOYSA-N

> <FORMULA>
C16H14N2O3

> <MOLECULAR_WEIGHT>
282.299

> <EXACT_MASS>
282.100442319

> <JCHEM_ACCEPTOR_COUNT>
4

> <JCHEM_ATOM_COUNT>
35

> <JCHEM_AVERAGE_POLARIZABILITY>
28.971546777004622

> <JCHEM_BIOAVAILABILITY>
1

> <JCHEM_DONOR_COUNT>
1

> <JCHEM_FORMAL_CHARGE>
0

> <JCHEM_GHOSE_FILTER>
1

> <JCHEM_IUPAC>
2-[(1-benzyl-1H-indazol-3-yl)oxy]acetic acid

> <ALOGPS_LOGP>
2.89

> <JCHEM_LOGP>
3.0592264439999997

> <ALOGPS_LOGS>
-3.44

> <JCHEM_MDDR_LIKE_RULE>
0

> <JCHEM_NUMBER_OF_RINGS>
3

> <JCHEM_PHYSIOLOGICAL_CHARGE>
-1

> <JCHEM_PKA_STRONGEST_ACIDIC>
3.6620244975177956

> <JCHEM_PKA_STRONGEST_BASIC>
0.3456913584526624

> <JCHEM_POLAR_SURFACE_AREA>
64.35000000000001

> <JCHEM_REFRACTIVITY>
88.76299999999999

> <JCHEM_ROTATABLE_BOND_COUNT>
5

> <JCHEM_RULE_OF_FIVE>
1

> <ALOGPS_SOLUBILITY>
1.03e-01 g/l

> <JCHEM_TRADITIONAL_IUPAC>
bendazac

> <JCHEM_VEBER_RULE>
0

> <DRUGBANK_ID>
DB13501

> <DRUG_GROUPS>
approved; withdrawn

> <GENERIC_NAME>
Bendazac

> <SYNONYMS>
bendazaco

> <SALTS>
Bendazac lysine

$$$$

  Mrv1652306231722472D          

 21 23  0  0  0  0            999 V2000
   -1.2448   -0.6055    0.0000 C   0  0  0  0  0  0  0  0  0  0  0  0
   -0.7145   -1.2375    0.0000 N   0  3  0  0  0  0  0  0  0  0  0  0
    0.0000   -1.6500    0.0000 C   0  0  0  0  0  0  0  0  0  0  0  0
    0.0000   -2.4750    0.0000 C   0  0  0  0  0  0  0  0  0  0  0  0
   -0.7145   -2.8875    0.0000 C   0  0  0  0  0  0  0  0  0  0  0  0
   -0.7145   -3.7125    0.0000 C   0  0  0  0  0  0  0  0  0  0  0  0
   -1.4289   -4.1250    0.0000 C   0  0  0  0  0  0  0  0  0  0  0  0
   -1.4289   -4.9500    0.0000 C   0  0  0  0  0  0  0  0  0  0  0  0
   -2.1434   -5.3625    0.0000 C   0  0  0  0  0  0  0  0  0  0  0  0
   -2.8579   -4.9500    0.0000 C   0  0  0  0  0  0  0  0  0  0  0  0
   -2.8579   -4.1250    0.0000 C   0  0  0  0  0  0  0  0  0  0  0  0
   -2.1434   -3.7125    0.0000 C   0  0  0  0  0  0  0  0  0  0  0  0
   -0.0000   -4.1250    0.0000 C   0  0  0  0  0  0  0  0  0  0  0  0
    0.7145   -3.7125    0.0000 C   0  0  0  0  0  0  0  0  0  0  0  0
    1.4289   -4.1250    0.0000 C   0  0  0  0  0  0  0  0  0  0  0  0
    1.4289   -4.9500    0.0000 C   0  0  0  0  0  0  0  0  0  0  0  0
    0.7145   -5.3625    0.0000 C   0  0  0  0  0  0  0  0  0  0  0  0
   -0.0000   -4.9500    0.0000 C   0  0  0  0  0  0  0  0  0  0  0  0
   -1.4289   -2.4750    0.0000 C   0  0  0  0  0  0  0  0  0  0  0  0
   -1.4289   -1.6500    0.0000 C   0  0  0  0  0  0  0  0  0  0  0  0
   -0.1842   -0.6055    0.0000 C   0  0  0  0  0  0  0  0  0  0  0  0
  1  2  1  0  0  0  0
  2  3  1  0  0  0  0
  3  4  1  0  0  0  0
  4  5  1  0  0  0  0
  5  6  2  0  0  0  0
  6  7  1  0  0  0  0
  7  8  2  0  0  0  0
  8  9  1  0  0  0  0
  9 10  2  0  0  0  0
 10 11  1  0  0  0  0
 11 12  2  0  0  0  0
  7 12  1  0  0  0  0
  6 13  1  0  0  0  0
 13 14  2  0  0  0  0
 14 15  1  0  0  0  0
 15 16  2  0  0  0  0
 16 17  1  0  0  0  0
 17 18  2  0  0  0  0
 13 18  1  0  0  0  0
  5 19  1  0  0  0  0
 19 20  1  0  0  0  0
  2 20  1  0  0  0  0
  2 21  1  0  0  0  0
M  CHG  1   2   1
M  END
> <DATABASE_ID>
DB13720

> <DATABASE_NAME>
drugbank

> <SMILES>
C[N+]1(C)CCC(CC1)=C(C1=CC=CC=C1)C1=CC=CC=C1

> <INCHI_IDENTIFIER>
InChI=1S/C20H24N/c1-21(2)15-13-19(14-16-21)20(17-9-5-3-6-10-17)18-11-7-4-8-12-18/h3-12H,13-16H2,1-2H3/q+1

> <INCHI_KEY>
LCTZPQRFOZKZNK-UHFFFAOYSA-N

> <FORMULA>
C20H24N

> <MOLECULAR_WEIGHT>
278.418

> <EXACT_MASS>
278.190326197

> <JCHEM_ACCEPTOR_COUNT>
0

> <JCHEM_ATOM_COUNT>
45

> <JCHEM_AVERAGE_POLARIZABILITY>
33.561772952482976

> <JCHEM_BIOAVAILABILITY>
1

> <JCHEM_DONOR_COUNT>
0

> <JCHEM_FORMAL_CHARGE>
1

> <JCHEM_GHOSE_FILTER>
1

> <JCHEM_IUPAC>
4-(diphenylmethylidene)-1,1-dimethylpiperidin-1-ium

> <ALOGPS_LOGP>
-0.40

> <JCHEM_LOGP>
-0.14609018880507812

> <ALOGPS_LOGS>
-5.93

> <JCHEM_MDDR_LIKE_RULE>
0

> <JCHEM_NUMBER_OF_RINGS>
3

> <JCHEM_PHYSIOLOGICAL_CHARGE>
1

> <JCHEM_POLAR_SURFACE_AREA>
0.0

> <JCHEM_REFRACTIVITY>
111.691

> <JCHEM_ROTATABLE_BOND_COUNT>
2

> <JCHEM_RULE_OF_FIVE>
1

> <ALOGPS_SOLUBILITY>
3.72e-04 g/l

> <JCHEM_TRADITIONAL_IUPAC>
4-(diphenylmethylidene)-1,1-dimethylpiperidin-1-ium

> <JCHEM_VEBER_RULE>
1

> <DRUGBANK_ID>
DB13720

> <DRUG_GROUPS>
approved; vet_approved; withdrawn

> <GENERIC_NAME>
Diphemanil

> <SYNONYMS>
Diphemanil cation; Diphemanil ion

> <INTERNATIONAL_BRANDS>
Demotil; Prantal; Prentol

> <SALTS>
Diphemanil methylsulfate

$$$$

  Mrv1909 12051923552D          

 17 18  0  0  0  0            999 V2000
    0.7221    0.0434    0.0000 N   0  0  0  0  0  0  0  0  0  0  0  0
    0.0118    0.4630    0.0000 C   0  0  0  0  0  0  0  0  0  0  0  0
    0.8163   -0.7761    0.0000 C   0  0  0  0  0  0  0  0  0  0  0  0
    1.4726    0.3862    0.0000 N   0  0  0  0  0  0  0  0  0  0  0  0
   -0.7066    0.0576    0.0000 C   0  0  0  0  0  0  0  0  0  0  0  0
    0.0200    1.2880    0.0000 C   0  0  0  0  0  0  0  0  0  0  0  0
    1.6248   -0.9398    0.0000 C   0  0  0  0  0  0  0  0  0  0  0  0
    0.1693   -1.2879    0.0000 O   0  0  0  0  0  0  0  0  0  0  0  0
    2.0305   -0.2214    0.0000 C   0  0  0  0  0  0  0  0  0  0  0  0
   -1.4180    0.4707    0.0000 C   0  0  0  0  0  0  0  0  0  0  0  0
   -0.7066   -0.7687    0.0000 C   0  0  0  0  0  0  0  0  0  0  0  0
    2.8502   -0.1273    0.0000 N   0  0  0  0  0  0  0  0  0  0  0  0
   -2.1336    0.0600    0.0000 C   0  0  0  0  0  0  0  0  0  0  0  0
   -1.4221   -1.1794    0.0000 C   0  0  0  0  0  0  0  0  0  0  0  0
   -2.1395   -0.7648    0.0000 C   0  0  0  0  0  0  0  0  0  0  0  0
   -2.8460    0.4759    0.0000 Cl  0  0  0  0  0  0  0  0  0  0  0  0
   -2.8502   -1.1837    0.0000 Cl  0  0  0  0  0  0  0  0  0  0  0  0
  1  2  1  0  0  0  0
  1  3  1  0  0  0  0
  1  4  1  0  0  0  0
  2  5  1  0  0  0  0
  2  6  1  0  0  0  0
  3  7  1  0  0  0  0
  3  8  2  0  0  0  0
  4  9  2  0  0  0  0
  5 10  2  0  0  0  0
  5 11  1  0  0  0  0
  9 12  1  0  0  0  0
 10 13  1  0  0  0  0
 11 14  2  0  0  0  0
 13 15  2  0  0  0  0
 13 16  1  0  0  0  0
 15 17  1  0  0  0  0
  7  9  1  0  0  0  0
 14 15  1  0  0  0  0
M  END
> <DATABASE_ID>
DB13801

> <DATABASE_NAME>
drugbank

> <SMILES>
CC(N1N=C(N)CC1=O)C1=CC(Cl)=C(Cl)C=C1

> <INCHI_IDENTIFIER>
InChI=1S/C11H11Cl2N3O/c1-6(16-11(17)5-10(14)15-16)7-2-3-8(12)9(13)4-7/h2-4,6H,5H2,1H3,(H2,14,15)

> <INCHI_KEY>
RLWRMIYXDPXIEX-UHFFFAOYSA-N

> <FORMULA>
C11H11Cl2N3O

> <MOLECULAR_WEIGHT>
272.13

> <EXACT_MASS>
271.0279174

> <JCHEM_ACCEPTOR_COUNT>
3

> <JCHEM_ATOM_COUNT>
28

> <JCHEM_AVERAGE_POLARIZABILITY>
25.943433894857055

> <JCHEM_BIOAVAILABILITY>
1

> <JCHEM_DONOR_COUNT>
1

> <JCHEM_FORMAL_CHARGE>
0

> <JCHEM_GHOSE_FILTER>
1

> <JCHEM_IUPAC>
3-amino-1-[1-(3,4-dichlorophenyl)ethyl]-4,5-dihydro-1H-pyrazol-5-one

> <ALOGPS_LOGP>
1.63

> <JCHEM_LOGP>
2.138478204

> <ALOGPS_LOGS>
-3.21

> <JCHEM_MDDR_LIKE_RULE>
0

> <JCHEM_NUMBER_OF_RINGS>
2

> <JCHEM_PHYSIOLOGICAL_CHARGE>
0

> <JCHEM_PKA_STRONGEST_ACIDIC>
10.113901346311437

> <JCHEM_PKA_STRONGEST_BASIC>
2.995526175730836

> <JCHEM_POLAR_SURFACE_AREA>
58.69

> <JCHEM_REFRACTIVITY>
66.7491

> <JCHEM_ROTATABLE_BOND_COUNT>
2

> <JCHEM_RULE_OF_FIVE>
1

> <ALOGPS_SOLUBILITY>
1.66e-01 g/l

> <JCHEM_TRADITIONAL_IUPAC>
N-{3-[4-(3-aminopropyl)piperazin-1-yl]propyl}-3-nitro-5-{[(2S,3R,4S,5R,6R)-3,4,5-trihydroxy-6-(hydroxymethyl)oxan-2-yl]oxy}benzamide

> <JCHEM_VEBER_RULE>
0

> <DRUGBANK_ID>
DB13801

> <DRUG_GROUPS>
approved; withdrawn

> <GENERIC_NAME>
Muzolimine

> <SYNONYMS>
Muzolimina; Muzolimine; Muzoliminum

> <INTERNATIONAL_BRANDS>
Edrul

$$$$

  Mrv1572004221605092D          

 20 21  0  0  0  0            999 V2000
   -3.6829    1.4289    0.0000 C   0  0  0  0  0  0  0  0  0  0  0  0
   -3.6829    0.0000    0.0000 C   0  0  0  0  0  0  0  0  0  0  0  0
    3.5893   -2.4209    0.0000 C   0  0  0  0  0  0  0  0  0  0  0  0
    2.8748   -3.6584    0.0000 C   0  0  0  0  0  0  0  0  0  0  0  0
   -2.8579    1.4289    0.0000 C   0  0  0  0  0  0  0  0  0  0  0  0
   -2.8579    0.0000    0.0000 C   0  0  0  0  0  0  0  0  0  0  0  0
   -0.3829   -1.4289    0.0000 C   0  0  0  0  0  0  0  0  0  0  0  0
    0.0296   -2.1434    0.0000 C   0  0  0  0  0  0  0  0  0  0  0  0
   -1.6204    0.7145    0.0000 C   0  0  0  0  0  0  0  0  0  0  0  0
   -1.2079    0.0000    0.0000 C   0  0  0  0  0  0  0  0  0  0  0  0
    0.8546   -0.7145    0.0000 C   0  0  0  0  0  0  0  0  0  0  0  0
    0.0296   -0.7145    0.0000 C   0  0  0  0  0  0  0  0  0  0  0  0
    0.8546   -2.1434    0.0000 C   0  0  0  0  0  0  0  0  0  0  0  0
    1.2671   -1.4289    0.0000 C   0  0  0  0  0  0  0  0  0  0  0  0
    2.1603   -2.4209    0.0000 C   0  0  0  0  0  0  0  0  0  0  0  0
    1.4066   -2.7565    0.0000 N   0  0  0  0  0  0  0  0  0  0  0  0
    2.8748   -2.8334    0.0000 N   0  0  0  0  0  0  0  0  0  0  0  0
   -2.4454    0.7145    0.0000 N   0  0  0  0  0  0  0  0  0  0  0  0
   -0.3829    0.0000    0.0000 O   0  0  0  0  0  0  0  0  0  0  0  0
    2.0741   -1.6005    0.0000 S   0  0  0  0  0  0  0  0  0  0  0  0
  5  1  1  0  0  0  0
  6  2  1  0  0  0  0
  8  7  2  0  0  0  0
 10  9  1  0  0  0  0
 12  7  1  0  0  0  0
 12 11  2  0  0  0  0
 13  8  1  0  0  0  0
 14 11  1  0  0  0  0
 14 13  2  0  0  0  0
 16 13  1  0  0  0  0
 16 15  2  0  0  0  0
 17  3  1  0  0  0  0
 17  4  1  0  0  0  0
 17 15  1  0  0  0  0
 18  5  1  0  0  0  0
 18  6  1  0  0  0  0
 18  9  1  0  0  0  0
 19 10  1  0  0  0  0
 19 12  1  0  0  0  0
 20 14  1  0  0  0  0
 20 15  1  0  0  0  0
M  END
> <DATABASE_ID>
DB13858

> <DATABASE_NAME>
drugbank

> <SMILES>
CCN(CC)CCOC1=CC2=C(C=C1)N=C(S2)N(C)C

> <INCHI_IDENTIFIER>
InChI=1S/C15H23N3OS/c1-5-18(6-2)9-10-19-12-7-8-13-14(11-12)20-15(16-13)17(3)4/h7-8,11H,5-6,9-10H2,1-4H3

> <INCHI_KEY>
WGMYEOIMVYADRJ-UHFFFAOYSA-N

> <FORMULA>
C15H23N3OS

> <MOLECULAR_WEIGHT>
293.43

> <EXACT_MASS>
293.156183547

> <JCHEM_ACCEPTOR_COUNT>
4

> <JCHEM_ATOM_COUNT>
43

> <JCHEM_AVERAGE_POLARIZABILITY>
34.42078626788442

> <JCHEM_BIOAVAILABILITY>
1

> <JCHEM_DONOR_COUNT>
0

> <JCHEM_FORMAL_CHARGE>
0

> <JCHEM_GHOSE_FILTER>
1

> <JCHEM_IUPAC>
6-[2-(diethylamino)ethoxy]-N,N-dimethyl-1,3-benzothiazol-2-amine

> <ALOGPS_LOGP>
3.57

> <JCHEM_LOGP>
3.4803547950000002

> <ALOGPS_LOGS>
-3.32

> <JCHEM_MDDR_LIKE_RULE>
0

> <JCHEM_NUMBER_OF_RINGS>
2

> <JCHEM_PHYSIOLOGICAL_CHARGE>
1

> <JCHEM_PKA_STRONGEST_BASIC>
9.281330161545819

> <JCHEM_POLAR_SURFACE_AREA>
28.600000000000005

> <JCHEM_REFRACTIVITY>
85.0101

> <JCHEM_ROTATABLE_BOND_COUNT>
7

> <JCHEM_RULE_OF_FIVE>
1

> <ALOGPS_SOLUBILITY>
1.39e-01 g/l

> <JCHEM_TRADITIONAL_IUPAC>
6-[2-(diethylamino)ethoxy]-N,N-dimethyl-1,3-benzothiazol-2-amine

> <JCHEM_VEBER_RULE>
1

> <DRUGBANK_ID>
DB13858

> <DRUG_GROUPS>
approved; withdrawn

> <GENERIC_NAME>
Dimazole

> <SYNONYMS>
Diamthazole

> <SALTS>
Dimazole dihydrochloride

$$$$

  Mrv1718006171818292D          

 21 23  0  0  0  0            999 V2000
   -0.3604    0.2187    0.0000 O   0  0  0  0  0  0  0  0  0  0  0  0
   -1.0729   -0.2020    0.0000 C   0  0  0  0  0  0  0  0  0  0  0  0
   -1.0812   -1.0270    0.0000 C   0  0  0  0  0  0  0  0  0  0  0  0
    0.3562   -0.2020    0.0000 C   0  0  2  0  0  0  0  0  0  0  0  0
   -0.3604   -1.4437    0.0000 C   0  0  0  0  0  0  0  0  0  0  0  0
   -1.7936   -1.4437    0.0000 C   0  0  0  0  0  0  0  0  0  0  0  0
    1.0687    0.2062    0.0000 C   0  0  0  0  0  0  0  0  0  0  0  0
    0.3562   -1.0312    0.0000 C   0  0  2  0  0  0  0  0  0  0  0  0
   -1.7936    0.2104    0.0000 C   0  0  0  0  0  0  0  0  0  0  0  0
   -2.5062   -1.0312    0.0000 C   0  0  0  0  0  0  0  0  0  0  0  0
    1.0687    1.0312    0.0000 C   0  0  0  0  0  0  0  0  0  0  0  0
    1.7812    1.4437    0.0000 C   0  0  0  0  0  0  0  0  0  0  0  0
   -2.5062   -0.2020    0.0000 C   0  0  0  0  0  0  0  0  0  0  0  0
    2.5020    1.0312    0.0000 C   0  0  0  0  0  0  0  0  0  0  0  0
    1.7812   -0.2062    0.0000 C   0  0  0  0  0  0  0  0  0  0  0  0
    2.4936    0.1979    0.0000 C   0  0  0  0  0  0  0  0  0  0  0  0
   -1.7853   -2.2687    0.0000 O   0  0  0  0  0  0  0  0  0  0  0  0
    1.0687   -1.4437    0.0000 O   0  0  0  0  0  0  0  0  0  0  0  0
    1.7812    2.2687    0.0000 O   0  0  0  0  0  0  0  0  0  0  0  0
    3.2186    1.4354    0.0000 O   0  0  0  0  0  0  0  0  0  0  0  0
   -3.2186    0.2062    0.0000 O   0  0  0  0  0  0  0  0  0  0  0  0
  2  1  1  0  0  0  0
  3  2  1  0  0  0  0
  4  1  1  0  0  0  0
  5  8  1  0  0  0  0
  6  3  2  0  0  0  0
  4  7  1  6  0  0  0
  8  4  1  0  0  0  0
  9  2  2  0  0  0  0
 10 13  2  0  0  0  0
 11  7  1  0  0  0  0
 12 11  2  0  0  0  0
 13  9  1  0  0  0  0
 14 16  2  0  0  0  0
 15  7  2  0  0  0  0
 16 15  1  0  0  0  0
 17  6  1  0  0  0  0
  8 18  1  1  0  0  0
 19 12  1  0  0  0  0
 20 14  1  0  0  0  0
 21 13  1  0  0  0  0
  3  5  1  0  0  0  0
 10  6  1  0  0  0  0
 12 14  1  0  0  0  0
M  END
> <DATABASE_ID>
DB14086

> <DATABASE_NAME>
drugbank

> <SMILES>
O[C@H]1CC2=C(O)C=C(O)C=C2O[C@@H]1C1=CC=C(O)C(O)=C1

> <INCHI_IDENTIFIER>
InChI=1S/C15H14O6/c16-8-4-11(18)9-6-13(20)15(21-14(9)5-8)7-1-2-10(17)12(19)3-7/h1-5,13,15-20H,6H2/t13-,15+/m0/s1

> <INCHI_KEY>
PFTAWBLQPZVEMU-DZGCQCFKSA-N

> <FORMULA>
C15H14O6

> <MOLECULAR_WEIGHT>
290.2681

> <EXACT_MASS>
290.07903818

> <JCHEM_ACCEPTOR_COUNT>
6

> <JCHEM_ATOM_COUNT>
35

> <JCHEM_AVERAGE_POLARIZABILITY>
27.8872798853884

> <JCHEM_BIOAVAILABILITY>
1

> <JCHEM_DONOR_COUNT>
5

> <JCHEM_FORMAL_CHARGE>
0

> <JCHEM_GHOSE_FILTER>
1

> <JCHEM_IUPAC>
(2R,3S)-2-(3,4-dihydroxyphenyl)-3,4-dihydro-2H-1-benzopyran-3,5,7-triol

> <ALOGPS_LOGP>
1.02

> <JCHEM_LOGP>
1.795107015333333

> <ALOGPS_LOGS>
-2.65

> <JCHEM_MDDR_LIKE_RULE>
0

> <JCHEM_NUMBER_OF_RINGS>
3

> <JCHEM_PHYSIOLOGICAL_CHARGE>
0

> <JCHEM_PKA>
9.624022697297178

> <JCHEM_PKA_STRONGEST_ACIDIC>
9.004573813837975

> <JCHEM_PKA_STRONGEST_BASIC>
-3.289719332242856

> <JCHEM_POLAR_SURFACE_AREA>
110.38000000000001

> <JCHEM_REFRACTIVITY>
73.99970000000003

> <JCHEM_ROTATABLE_BOND_COUNT>
1

> <JCHEM_RULE_OF_FIVE>
1

> <ALOGPS_SOLUBILITY>
6.45e-01 g/l

> <JCHEM_TRADITIONAL_IUPAC>
(+)-catechol

> <JCHEM_VEBER_RULE>
0

> <DRUGBANK_ID>
DB14086

> <DRUG_GROUPS>
approved; withdrawn

> <GENERIC_NAME>
Cianidanol

> <SYNONYMS>
(+)-catechin; (+)-Catechol; (+)-Cyanidan-3-ol; (+)-Cyanidanol; (2R,3S)-(+)-Catechin; (2R,3S)-catechin; Catechin; Catechuic acid; Cianidanol; Cianidanolum; D-(+)-Catechin; d-Catechin; D-Catechol

> <PRODUCTS>
Slim 2

> <SALTS>
Cianidanol hydrate

$$$$

  Mrv1718007111817532D          

  2  0  0  0  0  0            999 V2000
   -0.4125    0.0000    0.0000 Li  0  3  0  0  0  0  0  0  0  0  0  0
    0.4125    0.0000    0.0000 O   0  5  0  0  0  0  0  0  0  0  0  0
M  CHG  2   1   1   2  -1
M  END
> <DATABASE_ID>
DB14506

> <DATABASE_NAME>
drugbank

> <SMILES>
[Li+].[OH-]

> <INCHI_IDENTIFIER>
InChI=1S/Li.H2O/h;1H2/q+1;/p-1

> <INCHI_KEY>
WMFOQBRAJBCJND-UHFFFAOYSA-M

> <FORMULA>
HLiO

> <MOLECULAR_WEIGHT>
23.95

> <EXACT_MASS>
24.01874309

> <JCHEM_ACCEPTOR_COUNT>
0

> <JCHEM_ATOM_COUNT>
3

> <JCHEM_AVERAGE_POLARIZABILITY>
1.7784

> <JCHEM_BIOAVAILABILITY>
1

> <JCHEM_DONOR_COUNT>
0

> <JCHEM_FORMAL_CHARGE>
0

> <JCHEM_GHOSE_FILTER>
0

> <JCHEM_IUPAC>
lithium(1+) hydroxide

> <JCHEM_LOGP>
0.0

> <JCHEM_MDDR_LIKE_RULE>
0

> <JCHEM_NUMBER_OF_RINGS>
0

> <JCHEM_PHYSIOLOGICAL_CHARGE>
1

> <JCHEM_PKA>
3.55

> <JCHEM_PKA_STRONGEST_ACIDIC>
3.09

> <JCHEM_POLAR_SURFACE_AREA>
0.0

> <JCHEM_REFRACTIVITY>
0.0

> <JCHEM_ROTATABLE_BOND_COUNT>
0

> <JCHEM_RULE_OF_FIVE>
1

> <JCHEM_TRADITIONAL_IUPAC>
lithium hydroxide

> <JCHEM_VEBER_RULE>
1

> <DRUGBANK_ID>
DB14506

> <DRUG_GROUPS>
approved; withdrawn

> <GENERIC_NAME>
Lithium hydroxide

> <SYNONYMS>
Lithium hydrate; Lithium hydroxide anhydrous; Lithiumhydroxid

> <PRODUCTS>
Lithium Hydroxide Monohydrate

> <SALTS>
Lithium hydroxide monohydrate

$$$$

  Mrv1718008311818432D          

 30 33  0  0  0  0            999 V2000
   -0.2052    2.2158    0.0000 O   0  0  0  0  0  0  0  0  0  0  0  0
    1.7570   -1.6865    0.0000 O   0  0  0  0  0  0  0  0  0  0  0  0
   -1.8957    0.1746    0.0000 O   0  0  0  0  0  0  0  0  0  0  0  0
    1.3012   -3.0408    0.0000 O   0  0  0  0  0  0  0  0  0  0  0  0
   -3.3183    0.3091    0.0000 O   0  0  0  0  0  0  0  0  0  0  0  0
    1.1048    2.8832    0.0000 N   0  0  0  0  0  0  0  0  0  0  0  0
    1.1048    1.5483    0.0000 C   0  0  0  0  0  0  0  0  0  0  0  0
    1.8893    1.8033    0.0000 C   0  0  0  0  0  0  0  0  0  0  0  0
    0.6198    2.2158    0.0000 C   0  0  0  0  0  0  0  0  0  0  0  0
    1.2677    0.7396    0.0000 C   0  0  0  0  0  0  0  0  0  0  0  0
    0.3546    1.2049    0.0000 C   0  0  0  0  0  0  0  0  0  0  0  0
    1.8893    2.6283    0.0000 C   0  0  0  0  0  0  0  0  0  0  0  0
    2.6038    1.3908    0.0000 C   0  0  0  0  0  0  0  0  0  0  0  0
    2.0497    0.4765    0.0000 C   0  0  0  0  0  0  0  0  0  0  0  0
    0.2769    0.3836    0.0000 C   0  0  0  0  0  0  0  0  0  0  0  0
    0.6490    0.1940    0.0000 C   0  0  0  0  0  0  0  0  0  0  0  0
   -0.3178    1.6828    0.0000 C   0  0  0  0  0  0  0  0  0  0  0  0
    2.6038    3.0408    0.0000 C   0  0  0  0  0  0  0  0  0  0  0  0
    3.3183    1.8033    0.0000 C   0  0  0  0  0  0  0  0  0  0  0  0
    3.3183    2.6283    0.0000 C   0  0  0  0  0  0  0  0  0  0  0  0
    2.2128   -0.3322    0.0000 C   0  0  0  0  0  0  0  0  0  0  0  0
   -0.4731    0.0401    0.0000 C   0  0  0  0  0  0  0  0  0  0  0  0
    0.8119   -0.6146    0.0000 C   0  0  0  0  0  0  0  0  0  0  0  0
   -1.0680    1.3394    0.0000 C   0  0  0  0  0  0  0  0  0  0  0  0
    1.5940   -0.8777    0.0000 C   0  0  0  0  0  0  0  0  0  0  0  0
   -1.1456    0.5180    0.0000 C   0  0  0  0  0  0  0  0  0  0  0  0
    1.1381   -2.2320    0.0000 C   0  0  0  0  0  0  0  0  0  0  0  0
   -2.5681    0.6525    0.0000 C   0  0  0  0  0  0  0  0  0  0  0  0
    0.3562   -1.9689    0.0000 C   0  0  0  0  0  0  0  0  0  0  0  0
   -2.4906    1.4738    0.0000 C   0  0  0  0  0  0  0  0  0  0  0  0
  1  9  2  0  0  0  0
  2 25  1  0  0  0  0
  2 27  1  0  0  0  0
  3 26  1  0  0  0  0
  3 28  1  0  0  0  0
  4 27  2  0  0  0  0
  5 28  2  0  0  0  0
  6  9  1  0  0  0  0
  6 12  1  0  0  0  0
  7  8  1  0  0  0  0
  7  9  1  0  0  0  0
  7 10  1  0  0  0  0
  7 11  1  0  0  0  0
  8 12  1  0  0  0  0
  8 13  2  0  0  0  0
 10 14  2  0  0  0  0
 10 16  1  0  0  0  0
 11 15  2  0  0  0  0
 11 17  1  0  0  0  0
 12 18  2  0  0  0  0
 13 19  1  0  0  0  0
 14 21  1  0  0  0  0
 15 22  1  0  0  0  0
 16 23  2  0  0  0  0
 17 24  2  0  0  0  0
 18 20  1  0  0  0  0
 19 20  2  0  0  0  0
 21 25  2  0  0  0  0
 22 26  2  0  0  0  0
 23 25  1  0  0  0  0
 24 26  1  0  0  0  0
 27 29  1  0  0  0  0
 28 30  1  0  0  0  0
M  END
> <DATABASE_ID>
DB14627

> <DATABASE_NAME>
drugbank

> <SMILES>
CC(=O)OC1=CC=C(C=C1)C1(C(=O)NC2=CC=CC=C12)C1=CC=C(OC(C)=O)C=C1

> <INCHI_IDENTIFIER>
InChI=1S/C24H19NO5/c1-15(26)29-19-11-7-17(8-12-19)24(18-9-13-20(14-10-18)30-16(2)27)21-5-3-4-6-22(21)25-23(24)28/h3-14H,1-2H3,(H,25,28)

> <INCHI_KEY>
PHPUXYRXPHEJDF-UHFFFAOYSA-N

> <FORMULA>
C24H19NO5

> <MOLECULAR_WEIGHT>
401.418

> <EXACT_MASS>
401.126322716

> <JCHEM_ACCEPTOR_COUNT>
3

> <JCHEM_ATOM_COUNT>
49

> <JCHEM_AVERAGE_POLARIZABILITY>
42.21083107353409

> <JCHEM_BIOAVAILABILITY>
1

> <JCHEM_DONOR_COUNT>
1

> <JCHEM_FORMAL_CHARGE>
0

> <JCHEM_GHOSE_FILTER>
1

> <JCHEM_IUPAC>
4-{3-[4-(acetyloxy)phenyl]-2-oxo-2,3-dihydro-1H-indol-3-yl}phenyl acetate

> <ALOGPS_LOGP>
4.19

> <JCHEM_LOGP>
3.653180661333333

> <ALOGPS_LOGS>
-5.91

> <JCHEM_MDDR_LIKE_RULE>
1

> <JCHEM_NUMBER_OF_RINGS>
4

> <JCHEM_PHYSIOLOGICAL_CHARGE>
0

> <JCHEM_PKA_STRONGEST_ACIDIC>
12.800621270870291

> <JCHEM_PKA_STRONGEST_BASIC>
-6.472337183751517

> <JCHEM_POLAR_SURFACE_AREA>
81.7

> <JCHEM_REFRACTIVITY>
111.99330000000003

> <JCHEM_ROTATABLE_BOND_COUNT>
6

> <JCHEM_RULE_OF_FIVE>
1

> <ALOGPS_SOLUBILITY>
4.93e-04 g/l

> <JCHEM_TRADITIONAL_IUPAC>
contax

> <JCHEM_VEBER_RULE>
0

> <DRUGBANK_ID>
DB14627

> <SECONDARY_ACCESSION_NUMBERS>
DBSALT002242

> <DRUG_GROUPS>
approved; investigational; withdrawn

> <GENERIC_NAME>
Oxyphenisatin acetate

> <SYNONYMS>
Oxyphenisatin diacetate; Oxyphenisatine acetate

$$$$

  Mrv1909 11121901242D          

 16 16  0  0  0  0            999 V2000
   -1.4236   -0.8236    0.0000 C   0  0  0  0  0  0  0  0  0  0  0  0
   -2.1380   -1.2361    0.0000 C   0  0  0  0  0  0  0  0  0  0  0  0
   -2.8527   -0.8232    0.0000 C   0  0  0  0  0  0  0  0  0  0  0  0
   -2.8530    0.0022    0.0000 C   0  0  0  0  0  0  0  0  0  0  0  0
   -2.1385    0.4147    0.0000 C   0  0  0  0  0  0  0  0  0  0  0  0
   -1.4239    0.0015    0.0000 C   0  0  0  0  0  0  0  0  0  0  0  0
   -0.7095    0.4141    0.0000 O   0  0  0  0  0  0  0  0  0  0  0  0
    0.0002   -0.0015    0.0000 C   0  0  0  0  0  0  0  0  0  0  0  0
    0.7147    0.4109    0.0000 C   0  0  0  0  0  0  0  0  0  0  0  0
    1.4235    0.0076    0.0000 C   0  0  0  0  0  0  0  0  0  0  0  0
    0.7143    1.2361    0.0000 O   0  0  0  0  0  0  0  0  0  0  0  0
    2.1380    0.4201    0.0000 O   0  0  0  0  0  0  0  0  0  0  0  0
   -3.5670   -1.2356    0.0000 Cl  0  0  0  0  0  0  0  0  0  0  0  0
    2.8527    0.0073    0.0000 C   0  0  0  0  0  0  0  0  0  0  0  0
    2.8530   -0.8182    0.0000 O   0  0  0  0  0  0  0  0  0  0  0  0
    3.5670    0.4196    0.0000 N   0  0  0  0  0  0  0  0  0  0  0  0
  1  2  2  0  0  0  0
  6  7  1  0  0  0  0
  3  4  2  0  0  0  0
  7  8  1  0  0  0  0
  8  9  1  0  0  0  0
  4  5  1  0  0  0  0
  9 10  1  0  0  0  0
  2  3  1  0  0  0  0
  9 11  1  0  0  0  0
  5  6  2  0  0  0  0
 10 12  1  0  0  0  0
  6  1  1  0  0  0  0
  3 13  1  0  0  0  0
 12 14  1  0  0  0  0
 14 15  2  0  0  0  0
 14 16  1  0  0  0  0
M  END
> <DATABASE_ID>
DB14656

> <DATABASE_NAME>
drugbank

> <SMILES>
NC(=O)OCC(O)COC1=CC=C(Cl)C=C1

> <INCHI_IDENTIFIER>
InChI=1S/C10H12ClNO4/c11-7-1-3-9(4-2-7)15-5-8(13)6-16-10(12)14/h1-4,8,13H,5-6H2,(H2,12,14)

> <INCHI_KEY>
SKPLBLUECSEIFO-UHFFFAOYSA-N

> <FORMULA>
C10H12ClNO4

> <MOLECULAR_WEIGHT>
245.66

> <EXACT_MASS>
245.0454856

> <JCHEM_ACCEPTOR_COUNT>
3

> <JCHEM_ATOM_COUNT>
28

> <JCHEM_AVERAGE_POLARIZABILITY>
23.79823319493986

> <JCHEM_BIOAVAILABILITY>
1

> <JCHEM_DONOR_COUNT>
2

> <JCHEM_FORMAL_CHARGE>
0

> <JCHEM_GHOSE_FILTER>
1

> <JCHEM_IUPAC>
3-(4-chlorophenoxy)-2-hydroxypropyl carbamate

> <ALOGPS_LOGP>
0.96

> <JCHEM_LOGP>
1.2067621493333334

> <ALOGPS_LOGS>
-2.25

> <JCHEM_MDDR_LIKE_RULE>
0

> <JCHEM_NUMBER_OF_RINGS>
1

> <JCHEM_PHYSIOLOGICAL_CHARGE>
0

> <JCHEM_PKA>
15.112877514042658

> <JCHEM_PKA_STRONGEST_ACIDIC>
13.614846851339271

> <JCHEM_PKA_STRONGEST_BASIC>
-3.3961562420711284

> <JCHEM_POLAR_SURFACE_AREA>
81.78

> <JCHEM_REFRACTIVITY>
57.409

> <JCHEM_ROTATABLE_BOND_COUNT>
6

> <JCHEM_RULE_OF_FIVE>
1

> <ALOGPS_SOLUBILITY>
1.39e+00 g/l

> <JCHEM_TRADITIONAL_IUPAC>
chlorphenesin carbamate

> <JCHEM_VEBER_RULE>
0

> <DRUGBANK_ID>
DB14656

> <SECONDARY_ACCESSION_NUMBERS>
DBSALT001343

> <DRUG_GROUPS>
approved; vet_approved; withdrawn

> <GENERIC_NAME>
Chlorphenesin carbamate

> <SYNONYMS>
1,2-propanediol-3-(p-chlorophenoxy)-1-carbamate; 3-(4-chlorophenoxy)-1,2-propanediol-1-carbamate; 3-(p-chlorophenoxy)-1,2-propanediol 1-carbamate; 3-(p-chlorophenoxy)-2-hydroxypropyl carbamate; carbamic acid 3-(p-chlorophenoxy)-2-hydroxypropyl ester; Chlorphenesin carbamate

> <INTERNATIONAL_BRANDS>
Kolpicortin; Maolate; Rinlaxer

$$$$
